<?xml version="1.0" encoding="UTF-8"?>

<!-- generated on 03/12/19 20:33:01 by Eclipse SUMO polyconvert Version 1.1.0
<configuration xmlns:xsi="http://www.w3.org/2001/XMLSchema-instance" xsi:noNamespaceSchemaLocation="http://sumo.dlr.de/xsd/polyconvertConfiguration.xsd">

    <input>
        <net-file value="map.net.xml"/>
        <osm-files value="map.osm"/>
        <type-file value="typemap.xml"/>
    </input>

    <output>
        <output-file value="map.poly.xml"/>
    </output>

    <processing>
        <poi-layer-offset value="5"/>
    </processing>

</configuration>
-->

<additional xmlns:xsi="http://www.w3.org/2001/XMLSchema-instance" xsi:noNamespaceSchemaLocation="http://sumo.dlr.de/xsd/additional_file.xsd">
    <location netOffset="-211697.00,-2539069.67" convBoundary="-2299.35,0.00,6286.32,9781.94" origBoundary="120.165094,22.935618,120.249107,23.023516" projParameter="+proj=utm +zone=51 +ellps=WGS84 +datum=WGS84 +units=m +no_defs"/>

    <poly id="107538158" type="unknown" color="51,128,255" fill="0" layer="-1.00" shape="1732.171499,6381.817406 1686.413414,6417.624522 1575.650731,6452.799146"/>
    <poly id="107538166" type="unknown" color="51,128,255" fill="0" layer="-1.00" shape="1186.690154,6588.715403 1179.184403,6590.598920"/>
    <poly id="107538178" type="unknown" color="51,128,255" fill="0" layer="-1.00" shape="2426.353746,5979.973889 2413.408970,5978.070019 2406.127223,5975.027689 2399.768432,5970.338579 2393.125026,5964.712820 2388.578774,5957.672852 2386.115138,5950.072354 2384.691515,5944.280788"/>
    <poly id="107538204" type="unknown" color="51,128,255" fill="0" layer="-1.00" shape="1727.922537,6350.566203 1669.872588,6333.707606 1618.508314,6318.772048 1540.233655,6296.004543"/>
    <poly id="107538207" type="unknown" color="51,128,255" fill="0" layer="-1.00" shape="1185.712945,6577.850310 1228.366925,6562.250141 1263.235508,6548.394835 1273.223174,6544.834708 1341.990251,6518.971678 1388.765875,6501.575379"/>
    <poly id="107538213" type="unknown" color="51,128,255" fill="0" layer="-1.00" shape="1612.749463,7751.844286 1384.039673,7667.391360 1297.748474,7635.535634"/>
    <poly id="108037253" type="water" color="181,209,209" fill="0" layer="-10.00" shape="2811.048736,5199.037855 2802.344609,5215.129573 2804.978631,5247.918766 2801.610406,5281.830520 2782.117583,5309.066192 2776.616787,5336.047199 2796.126037,5361.544592 2807.718545,5392.179761 2806.350456,5426.042451 2797.010507,5461.054042 2781.224970,5473.301475 2754.814282,5452.900450 2716.345257,5429.747207 2688.085275,5417.339089 2640.958600,5413.258318 2614.566760,5393.865709 2600.973557,5363.268666 2590.480419,5337.589027 2560.257761,5327.213382 2519.415321,5337.942466 2488.803015,5359.427278 2469.262859,5384.680459 2438.564606,5402.177102 2406.531086,5401.799946 2368.164421,5384.608291 2348.588785,5355.122696 2347.926570,5320.312063 2334.238115,5284.740669 2298.630653,5254.562625 2273.053815,5225.191273 2247.296277,5186.868207 2225.700892,5156.423666 2226.792521,5108.634517 2252.373957,5075.674117 2257.936285,5067.067507 2264.296011,5058.301648"/>
    <poly id="108071649" type="unknown" color="51,128,255" fill="0" layer="-1.00" shape="2632.953463,7353.323994 2621.336494,7352.658315 2617.998422,7353.553048"/>
    <poly id="108071651" type="unknown" color="51,128,255" fill="0" layer="-1.00" shape="4097.938081,7302.355179 4141.363425,7217.457817 4149.498365,7196.235119 4156.468617,7172.019887 4159.825073,7149.313817 4161.418835,7133.224398 4163.579819,7124.339282 4167.202165,7102.669990"/>
    <poly id="108071663" type="unknown" color="51,128,255" fill="0" layer="-1.00" shape="2835.056095,5184.728071 2588.716565,5113.588411"/>
    <poly id="108071685" type="unknown" color="51,128,255" fill="0" layer="-1.00" shape="2918.964557,7802.926148 2895.561209,7794.260638 2874.708673,7785.391510 2807.013778,7753.550968 2740.831226,7721.404857 2724.111339,7709.198880 2707.691897,7689.594749 2681.830303,7625.604902"/>
    <poly id="108071686" type="unknown" color="51,128,255" fill="0" layer="-1.00" shape="4265.331222,5024.108121 4274.728383,4957.166830 4296.789729,4829.440140 4304.256914,4783.083169 4320.795460,4675.321567 4326.923585,4634.121331 4332.694363,4595.731839 4337.045413,4552.259927 4347.430452,4512.043292 4354.375115,4481.467301 4366.366801,4445.354295 4387.827619,4387.351045 4402.048525,4349.721973 4415.852150,4318.251833 4430.564288,4284.348484"/>
    <poly id="108071688" type="unknown" color="51,128,255" fill="0" layer="-1.00" shape="3776.890811,6156.696484 3761.837684,6174.559202 3752.742735,6186.279941 3732.160845,6204.779381 3722.643542,6212.618001 3717.336085,6220.066569 3714.214995,6225.390120 3711.354795,6232.027612 3709.630937,6240.693942 3711.715952,6265.181195 3718.010179,6312.541679 3718.541174,6319.990501 3725.902045,6424.208893 3726.218749,6428.469861 3726.750163,6435.940841 3728.113748,6454.301761 3748.576675,6672.238805 3749.199140,6679.641563 3750.270178,6691.225211 3775.513170,6964.353900 3776.419172,6974.267136"/>
    <poly id="108071689" type="unknown" color="51,128,255" fill="0" layer="-1.00" shape="2838.738320,5173.829964 2858.495902,5178.896591"/>
    <poly id="108071692" type="unknown" color="51,128,255" fill="0" layer="-1.00" shape="2767.906458,7333.379282 2749.266752,7338.399672 2651.215793,7358.673369 2634.416133,7359.558149 2621.336494,7352.658315"/>
    <poly id="108071693" type="unknown" color="51,128,255" fill="0" layer="-1.00" shape="3538.289285,5544.012964 3517.204633,5542.517249 3512.252034,5542.167767 3483.447519,5525.335367 3473.346663,5514.853808 3449.243818,5486.217591 3403.704157,5427.232252 3377.953470,5397.751790 3357.843411,5374.603685 3335.453981,5355.178384 3331.791979,5352.543544 3319.422768,5343.667777 3312.534059,5339.708734 3304.680445,5335.191669 3282.249236,5325.475981"/>
    <poly id="108071697" type="unknown" color="51,128,255" fill="0" layer="-1.00" shape="2617.043091,7348.639221 2619.981933,7348.871480 2631.500839,7347.078565"/>
    <poly id="108071698" type="unknown" color="51,128,255" fill="0" layer="-1.00" shape="2747.627388,7331.503884 2632.953463,7353.323994"/>
    <poly id="108071699" type="leisure" color="207,245,201" fill="1" layer="0.00" shape="3647.753719,7186.473705 3761.869108,7176.786002 3758.799081,7140.924037 3644.683416,7150.611734 3647.753719,7186.473705"/>
    <poly id="108071699#1" type="sport" color="79,230,125" fill="1" layer="2.00" shape="3647.753719,7186.473705 3761.869108,7176.786002 3758.799081,7140.924037 3644.683416,7150.611734 3647.753719,7186.473705"/>
    <poly id="108071703" type="unknown" color="51,128,255" fill="0" layer="-1.00" shape="2631.500839,7347.078565 2745.977977,7324.619369"/>
    <poly id="108071705" type="unknown" color="51,128,255" fill="0" layer="-1.00" shape="4784.794515,6537.273829 4772.411522,6536.266229"/>
    <poly id="108071711" type="unknown" color="51,128,255" fill="0" layer="-1.00" shape="2588.716565,5113.588411 2488.249482,5084.742502 2475.393994,5081.096738"/>
    <poly id="108071712" type="unknown" color="51,128,255" fill="0" layer="-1.00" shape="3647.375222,8136.409563 3650.555516,8122.872261 3650.624219,8120.543515 3687.091025,8057.986523 3717.860039,8009.291729 3727.432339,7994.137089 3784.387791,7894.185817 3786.546650,7887.916237 3793.605590,7870.060690 3798.537793,7856.379421 3803.030764,7844.424350 3817.160530,7794.172113 3823.771285,7765.652115 3824.328331,7763.103545 3825.374046,7759.271168 3828.469952,7739.639866 3830.702877,7711.823467 3830.281687,7682.550056 3829.938920,7672.038746 3828.845405,7654.393098 3828.207446,7630.465820 3827.361762,7612.904142 3812.964331,7484.403066 3808.494498,7444.511225 3807.557815,7436.227774 3805.828511,7420.766447 3804.754241,7411.177804 3803.151216,7396.966469"/>
    <poly id="108071716" type="unknown" color="51,128,255" fill="0" layer="-1.00" shape="2599.869849,7367.641007 2589.969674,7376.319039 2552.137684,7408.537130 2544.194479,7411.137645 2532.753480,7392.757811 2529.474884,7387.611115 2527.984584,7384.780019"/>
    <poly id="108071717" type="unknown" color="51,128,255" fill="0" layer="-1.00" shape="3759.870521,6162.793032 3755.772388,6151.743281 3696.835178,5993.629600 3684.862340,5961.759912 3681.673790,5953.230955 3678.030714,5943.458226 3640.715818,5843.486766 3635.699697,5830.027235 3622.349020,5794.227027 3596.577719,5725.147024 3594.582635,5718.956154 3562.494246,5619.218265 3542.890896,5558.333727 3538.289285,5544.012964"/>
    <poly id="108071719" type="leisure" color="207,245,201" fill="1" layer="0.00" shape="3761.656750,6659.123658 3793.947260,6656.439571 3788.206198,6587.888942 3755.905283,6590.573219 3761.656750,6659.123658"/>
    <poly id="108071719#1" type="sport" color="79,230,125" fill="1" layer="2.00" shape="3761.656750,6659.123658 3793.947260,6656.439571 3788.206198,6587.888942 3755.905283,6590.573219 3761.656750,6659.123658"/>
    <poly id="108071720" type="unknown" color="51,128,255" fill="0" layer="-1.00" shape="2745.977977,7324.619369 2764.747276,7316.160743"/>
    <poly id="108071721" type="unknown" color="51,128,255" fill="0" layer="-1.00" shape="4745.420937,6318.519339 4605.230132,6333.811344 4535.641133,6342.462376 4454.674369,6353.356862"/>
    <poly id="108071722" type="unknown" color="51,128,255" fill="0" layer="-1.00" shape="4531.680502,6997.008151 4529.420093,6977.832994 4528.307575,6968.366993 4522.746442,6921.114546 4518.773597,6887.331143 4515.790610,6861.952094 4510.852377,6819.974453 4506.478038,6782.862665 4503.971445,6761.519898 4500.890267,6735.289317 4497.602487,6707.355862 4493.435767,6672.002343 4490.757307,6649.166624 4483.643967,6588.732611"/>
    <poly id="108071723" type="unknown" color="51,128,255" fill="0" layer="-1.00" shape="4225.224155,6215.520838 4110.736818,6233.046788"/>
    <poly id="108071724" type="unknown" color="51,128,255" fill="0" layer="-1.00" shape="2595.158131,5095.622172 2838.738320,5173.829964"/>
    <poly id="108071725" type="unknown" color="51,128,255" fill="0" layer="-1.00" shape="2484.164077,5059.849893 2497.772695,5064.246085 2595.158131,5095.622172"/>
    <poly id="108071726" type="leisure" color="207,245,201" fill="1" layer="0.00" shape="3911.181048,6424.258347 3908.519294,6383.379161 3802.583946,6390.250163 3805.256039,6431.118087 3911.181048,6424.258347"/>
    <poly id="108071726#1" type="sport" color="79,230,125" fill="1" layer="2.00" shape="3911.181048,6424.258347 3908.519294,6383.379161 3802.583946,6390.250163 3805.256039,6431.118087 3911.181048,6424.258347"/>
    <poly id="108071729" type="leisure" color="207,245,201" fill="1" layer="0.00" shape="3682.263525,7128.243284 3738.081721,7122.951936 3735.371235,7094.697206 3679.563188,7099.988358 3682.263525,7128.243284"/>
    <poly id="108071729#1" type="sport" color="79,230,125" fill="1" layer="2.00" shape="3682.263525,7128.243284 3738.081721,7122.951936 3735.371235,7094.697206 3679.563188,7099.988358 3682.263525,7128.243284"/>
    <poly id="108071730" type="unknown" color="51,128,255" fill="0" layer="-1.00" shape="3015.862401,5221.815431 3020.038114,5207.716091 3033.019262,5163.924338 3047.081119,5117.053174 3048.717641,5112.444811 3065.115254,5067.524312 3074.649188,5040.522392 3076.217707,5036.114821 3082.622415,5018.337979 3088.253561,5011.171232 3105.030175,4997.575450 3159.793017,4954.609463 3219.723071,4907.589085 3256.852158,4878.457067 3300.665219,4844.089171 3405.582605,4761.781960 3450.801865,4726.312892 3492.664067,4693.467755 3602.143922,4607.584620 3642.308118,4576.079931 3718.885244,4516.001348 3768.110198,4477.387626"/>
    <poly id="108071733" type="unknown" color="51,128,255" fill="0" layer="-1.00" shape="4182.630675,6966.910657 4263.493148,6980.520728 4289.057376,6984.625695 4304.401974,6987.084147 4396.737134,7001.885533 4409.031908,7004.213322 4408.250624,7018.791120 4413.837667,7036.451534"/>
    <poly id="108071734" type="unknown" color="51,128,255" fill="0" layer="-1.00" shape="2619.981933,7348.871480 2630.038168,7340.844410 2645.416909,7335.919141 2744.338610,7317.723581 2764.747276,7316.160743"/>
    <poly id="111343182" type="amenity" color="237,199,199" fill="1" layer="2.00" shape="3596.047124,7420.552568 3786.355688,7386.146194 3770.849882,7230.025026 3581.232090,7247.394678 3596.047124,7420.552568"/>
    <poly id="111343183" type="unknown" color="51,128,255" fill="0" layer="-1.00" shape="2751.210576,6354.103540 2722.873462,6365.082415 2697.805837,6384.499955 2675.857756,6406.085950 2657.977215,6431.130172 2642.437028,6457.836727"/>
    <poly id="111343184" type="amenity" color="237,199,199" fill="1" layer="2.00" shape="3192.412078,7284.207372 3554.011847,7256.056772 3567.780413,7425.953930 3384.591881,7462.466889 3204.895194,7497.508342 3192.412078,7284.207372"/>
    <poly id="111343185" type="amenity" color="237,199,199" fill="1" layer="2.00" shape="3555.130740,6446.861910 3599.168639,6433.802757 3695.767369,6423.726810 3685.526577,6281.237834 3632.011449,6287.482823 3622.295012,6296.178687 3582.327542,6298.265954 3571.239588,6340.170476 3563.719746,6367.854347 3555.130740,6446.861910"/>
    <poly id="111343187" type="amenity" color="237,199,199" fill="1" layer="2.00" shape="3510.457218,6521.654762 3705.323089,6503.509884 3769.105498,7182.356677 3574.238302,7200.501857 3510.457218,6521.654762"/>
    <poly id="111343188" type="tourism" color="207,245,201" fill="1" layer="-10.00" shape="2392.381697,7663.730841 2658.169826,7598.590913 2573.773751,7178.648880 2566.155382,7172.443168 2388.597901,7227.314479 2199.007692,7295.196169 2194.579614,7308.890672 2194.662016,7316.447834 2356.439246,7598.991246 2392.381697,7663.730841"/>
    <poly id="111343189" type="unknown" color="51,128,255" fill="0" layer="-1.00" shape="3090.850784,6308.983620 3078.476554,6310.626066 2961.963490,6326.259908"/>
    <poly id="111343190" type="amenity" color="237,199,199" fill="1" layer="2.00" shape="3255.586351,6302.887238 3339.775498,6294.163905 3342.422013,6328.748288 3405.504779,6355.758408 3454.978669,6354.476813 3456.105159,6391.705603 3453.911683,6412.394920 3451.075276,6431.644548 3450.363009,6458.479047 3388.624421,6458.497064 3388.634989,6564.561773 3325.789625,6569.499807 3329.392745,6716.714379 3137.920622,6725.944711 3130.941517,6610.170252 3127.675982,6607.328470 3125.293583,6540.199098 3118.830089,6491.589452 3117.647653,6477.946450 3190.405848,6448.702688 3266.664819,6445.504619 3262.899541,6387.655914 3284.944702,6385.752573 3281.049046,6341.039786 3259.003818,6342.943125 3255.586351,6302.887238"/>
    <poly id="111343191" type="unknown" color="51,128,255" fill="0" layer="-1.00" shape="2642.437028,6457.836727 2634.721653,6470.828771 2586.451763,6552.143712"/>
    <poly id="111343192" type="unknown" color="51,128,255" fill="0" layer="-1.00" shape="3129.158496,6740.020317 3138.498689,6739.100447 3173.985398,6735.611760 3210.414065,6732.016617 3224.352667,6730.643793 3270.961556,6726.057635 3327.207686,6720.524073 3337.152204,6719.548533 3354.757107,6717.807044 3405.718689,6712.795177 3420.912981,6710.545330 3499.253893,6703.584890 3508.368871,6702.691690"/>
    <poly id="111343193" type="amenity" color="237,199,199" fill="1" layer="2.00" shape="2825.094672,7564.273075 3189.876036,7497.050911 3172.543042,7297.440956 3158.599116,7289.858855 2933.711597,7319.887354 2888.030820,7326.784618 2789.487664,7342.223408 2825.094672,7564.273075"/>
    <poly id="111343194" type="amenity" color="237,199,199" fill="1" layer="2.00" shape="3188.642372,7241.287621 3549.983511,7208.099172 3504.770870,6720.193546 3143.417827,6753.381837 3188.642372,7241.287621"/>
    <poly id="111343195" type="unknown" color="51,128,255" fill="0" layer="-1.00" shape="1684.928347,6772.205079 1672.041757,6737.294966 1662.303302,6713.042269 1624.806575,6614.972964 1601.272565,6540.998183 1599.766487,6535.740224 1575.650731,6452.799146"/>
    <poly id="117916591" type="landuse" color="194,194,130" fill="1" layer="-4.00" shape="3442.009208,8000.159209 3544.147951,8063.633983 3612.654850,8009.158261 3541.774099,7963.355055 3551.182789,7942.285030 3500.225932,7923.523645 3477.759038,7939.310962 3442.009208,8000.159209"/>
    <poly id="117916592" type="water" color="181,209,209" fill="0" layer="-10.00" shape="3834.850827,6270.308342 3807.920009,6299.235095 3810.818410,6336.341586 3793.692955,6360.716017 3770.044869,6389.591792 3768.470482,6422.405199 3846.210884,6754.321535 3859.255461,6804.358212 3861.118439,6844.764890 3868.872170,6905.829614 3891.410945,6934.916941 3904.465598,6986.039576 3927.169694,7023.868309 3952.006519,7058.376115 3988.293381,7116.717354 4012.653850,7184.616287 4026.763049,7232.937168 4034.544070,7266.748250 4049.994442,7277.516671 4096.050577,7305.627136 4128.470688,7310.411093 4153.673500,7311.707522 4178.728007,7333.909340 4213.281575,7375.548412"/>
    <poly id="117916593" type="unknown" color="51,128,255" fill="0" layer="-1.00" shape="3471.609360,7936.390859 3484.589481,7932.686709 3516.112266,7905.356407 3597.869593,7839.745830 3631.876435,7812.457388 3656.535086,7792.661064 3681.386148,7772.728145 3697.303125,7759.946931 3710.805023,7749.117794 3737.980501,7727.312231 3745.661188,7721.148583 3770.532573,7701.193292 3821.376884,7660.386430 3828.845405,7654.393098 3844.813279,7641.577859"/>
    <poly id="142297097" type="unknown" color="51,128,255" fill="0" layer="-1.00" shape="1277.472269,6920.819633 1262.219310,6879.715099 1261.462583,6877.701322 1261.060134,6867.379410"/>
    <poly id="142297115" type="unknown" color="51,128,255" fill="0" layer="-1.00" shape="1862.932231,7797.132700 1869.820546,7795.183652"/>
    <poly id="152086640" type="unknown" color="51,128,255" fill="0" layer="-1.00" shape="2471.584216,6562.485856 2392.539767,6561.108292 2378.278438,6561.169120 2293.737598,6559.974260 2289.057630,6559.919273 2283.864176,6559.840813 2246.053272,6559.308299 2159.726058,6586.620881 2145.261307,6591.085829 2138.342472,6593.079590"/>
    <poly id="152086643" type="unknown" color="51,128,255" fill="0" layer="-1.00" shape="2470.712203,6551.707460 2523.932813,6549.442621"/>
    <poly id="152086644" type="unknown" color="51,128,255" fill="0" layer="-1.00" shape="2546.509428,6557.148216 2525.190481,6559.460025"/>
    <poly id="152086649" type="unknown" color="51,128,255" fill="0" layer="-1.00" shape="2618.424852,6549.474231 2603.308268,6560.135502 2547.314512,6565.489591"/>
    <poly id="152086652" type="unknown" color="51,128,255" fill="0" layer="-1.00" shape="2653.998128,6458.226491 2631.559083,6502.010338 2618.424852,6549.474231"/>
    <poly id="152086655" type="unknown" color="51,128,255" fill="0" layer="-1.00" shape="2618.424852,6549.474231 2660.740234,6545.156291 2679.491417,6543.248155 2697.802179,6541.381665 2770.737958,6533.943940 2785.474702,6532.444730 2800.211236,6530.934454 2814.937515,6529.424389 2856.792215,6525.160100"/>
    <poly id="152086658" type="unknown" color="51,128,255" fill="0" layer="-1.00" shape="2961.963490,6326.259908 2946.342488,6335.777711 2933.697650,6337.757913 2841.070485,6349.525493 2752.680601,6360.725473"/>
    <poly id="152086662" type="unknown" color="51,128,255" fill="0" layer="-1.00" shape="2961.963490,6326.259908 2769.467579,6350.475973"/>
    <poly id="152170719" type="unknown" color="51,128,255" fill="0" layer="-1.00" shape="2820.713599,6584.464214 2814.937515,6529.424389"/>
    <poly id="152170721" type="unknown" color="51,128,255" fill="0" layer="-1.00" shape="2783.290604,6645.899798 2757.181150,6648.269087 2713.893909,6652.184105"/>
    <poly id="152193598" type="unknown" color="51,128,255" fill="0" layer="-1.00" shape="2800.224270,5192.637905 2799.584012,5200.530147 2797.857727,5222.019811 2798.532123,5238.077496 2801.425704,5255.356505 2802.322828,5273.416001 2800.471620,5282.384138 2797.153955,5291.402294 2788.215498,5303.796726 2779.810413,5315.637962 2779.308309,5318.917014 2778.011416,5327.353722 2778.849653,5342.311071 2785.102767,5352.776658 2798.679612,5361.462841 2806.601684,5372.816632 2809.954597,5394.830484 2808.670495,5414.205966 2801.840876,5435.515491 2798.246277,5459.124276 2798.338514,5468.842404 2813.366968,5510.739235 2829.251482,5556.110990 2847.470939,5608.265595 2868.740652,5667.588461 2876.291888,5690.763892 2904.311549,5769.985750"/>
    <poly id="152193600" type="unknown" color="51,128,255" fill="0" layer="-1.00" shape="2705.609295,5558.692605 2718.166643,5594.197035 2736.255765,5647.573170 2748.377833,5679.616868 2757.649302,5705.829599 2766.045731,5730.274577 2794.539330,5810.107947"/>
    <poly id="152193602" type="unknown" color="51,128,255" fill="0" layer="-1.00" shape="4266.948320,7296.697465 4271.687525,7246.191303 4273.711634,7224.640937 4341.393848,7156.054180 4351.473682,7154.112503 4404.914312,7151.694750"/>
    <poly id="152193603" type="unknown" color="51,128,255" fill="0" layer="-1.00" shape="2761.179370,5134.871810 2851.663849,5160.639470 2853.845759,5170.705819"/>
    <poly id="152193604" type="unknown" color="51,128,255" fill="0" layer="-1.00" shape="2983.669675,5557.966781 2966.253086,5564.836432 2923.544612,5579.401394 2914.216880,5582.637438 2881.872600,5595.587104 2847.470939,5608.265595 2736.255765,5647.573170 2680.455261,5665.435494 2670.482768,5669.836599 2598.160876,5695.217274"/>
    <poly id="152193605" type="unknown" color="51,128,255" fill="0" layer="-1.00" shape="2949.264713,5460.756256 2962.072744,5496.522058 2969.245737,5516.534940 2983.669675,5557.966781 2987.839625,5568.438722 3014.013314,5638.552224 3034.625711,5698.962775"/>
    <poly id="152193608" type="unknown" color="51,128,255" fill="0" layer="-1.00" shape="3281.006999,5972.595088 3060.565851,5991.418491"/>
    <poly id="152193609" type="unknown" color="51,128,255" fill="0" layer="-1.00" shape="4137.585284,7309.518239 4133.275109,7325.736649 4123.121358,7343.827830 4117.283479,7354.677730 4093.993151,7377.450726 4080.153724,7384.029949 4062.302067,7387.326971"/>
    <poly id="152193610" type="unknown" color="51,128,255" fill="0" layer="-1.00" shape="4213.876442,7190.029936 4223.993021,7194.914599 4273.711634,7224.640937 4279.849703,7229.656286 4321.095806,7271.457191"/>
    <poly id="152193611" type="unknown" color="51,128,255" fill="0" layer="-1.00" shape="3396.465596,5499.010269 3340.427830,5519.024592 3291.677596,5536.429430 3152.572909,5586.126539 3143.583022,5589.322776 3054.889479,5620.985517 3014.013314,5638.552224 2922.463463,5673.240303 2876.291888,5690.763892 2766.045731,5730.274577 2570.268437,5799.275016"/>
    <poly id="152193612" type="unknown" color="51,128,255" fill="0" layer="-1.00" shape="2538.586153,5907.982270 2526.014216,5949.428427 2504.781209,6030.761284 2498.147224,6053.142396 2484.756969,6133.550342 2483.518052,6142.861579 2480.635448,6209.792084 2481.678913,6230.663958"/>
    <poly id="152193614" type="unknown" color="51,128,255" fill="0" layer="-1.00" shape="4010.080072,7178.192522 4013.566509,7185.674064 4016.158146,7194.125682 4025.681661,7225.133028 4038.933264,7268.261129"/>
    <poly id="152193615" type="unknown" color="51,128,255" fill="0" layer="-1.00" shape="2611.939204,5532.044561 2657.928054,5542.685858"/>
    <poly id="152193616" type="unknown" color="51,128,255" fill="0" layer="-1.00" shape="2657.928054,5542.685858 2701.384790,5552.920994 2797.771413,5517.319582 2813.366968,5510.739235"/>
    <poly id="152193617" type="unknown" color="51,128,255" fill="0" layer="-1.00" shape="4194.652120,7311.697000 4195.496504,7285.824388 4196.162428,7236.414862 4202.080128,7214.591329 4209.226899,7199.704674 4213.876442,7190.029936 4224.010977,7182.844877 4246.559307,7167.467457 4268.528705,7151.857198 4276.127330,7139.699543 4278.582202,7127.362085 4276.373237,7100.073203 4275.802331,7094.298678 4275.294650,7089.154688 4275.950998,7084.797745 4283.848404,7061.850701"/>
    <poly id="152193618" type="unknown" color="51,128,255" fill="0" layer="-1.00" shape="2761.516305,7587.105044 2787.817891,7580.897139 2810.973469,7574.350099 2824.464746,7570.535935 2832.246447,7569.157778 2837.512669,7568.226435 2938.744766,7550.209727 3089.488682,7523.373217 3194.319008,7504.636062 3201.991929,7503.470748 3210.086785,7501.831938 3313.282388,7483.448092 3328.395680,7480.756265 3399.974184,7468.004759 3404.279086,7467.235940 3410.157795,7466.138024 3570.401385,7437.563616 3578.460308,7436.191688 3586.937434,7434.689923 3594.546759,7433.415192 3703.363243,7414.373424 3793.569101,7398.633120 3803.151216,7396.966469"/>
    <poly id="152193619" type="unknown" color="51,128,255" fill="0" layer="-1.00" shape="4097.063741,7308.201388 4096.822759,7319.865274 4085.192129,7358.044683 4071.259567,7378.135868 4062.302067,7387.326971 4051.659565,7389.346014 4035.047299,7393.617083 3990.964876,7403.096309 3832.377583,7431.390898 3823.829074,7432.916041"/>
    <poly id="152193620" type="unknown" color="51,128,255" fill="0" layer="-1.00" shape="2538.586153,5907.982270 2543.544901,5890.310131 2557.383775,5841.015226 2570.268437,5799.275016 2594.624330,5708.362590 2598.160876,5695.217274 2609.348357,5655.947685 2619.526179,5619.700830 2640.681901,5543.401531 2643.620013,5533.858543 2653.029214,5500.352791 2676.854829,5415.491029 2708.812292,5301.692014 2720.297806,5260.787720 2741.530592,5184.697841 2749.494025,5177.154141"/>
    <poly id="152193626" type="tourism" color="207,245,201" fill="1" layer="-10.00" shape="4187.454859,7304.385376 4186.764710,7285.801157 4137.919159,7272.394938 4125.200552,7266.096611 4108.978860,7296.438506 4114.551185,7301.375832 4180.484314,7306.889005 4187.454859,7304.385376"/>
    <poly id="152193627" type="unknown" color="51,128,255" fill="0" layer="-1.00" shape="3030.812555,5318.009906 3006.997564,5298.656416 2987.244173,5278.660629 2952.700448,5253.625732 2918.306199,5237.011209 2893.570590,5228.636520 2881.495508,5221.761524 2870.719719,5211.437190 2869.637756,5208.498548 2867.819965,5203.556756 2868.834344,5193.208054"/>
    <poly id="152195278" type="unknown" color="51,128,255" fill="0" layer="-1.00" shape="3486.102337,5563.089309 3513.527003,5638.699036 3518.961037,5674.205874 3525.419344,5709.615722 3532.106677,5721.913096 3543.854075,5729.404306 3590.553415,5725.637971 3596.577719,5725.147024 3614.366463,5721.673554"/>
    <poly id="152195279" type="unknown" color="51,128,255" fill="0" layer="-1.00" shape="3817.902436,6140.370502 3806.259137,6106.377662 3805.751877,6094.218112 3834.402817,5978.345843"/>
    <poly id="152195281" type="unknown" color="51,128,255" fill="0" layer="-1.00" shape="3562.494246,5619.218265 3554.957757,5622.220469 3513.527003,5638.699036 3406.040197,5676.068886 3348.097095,5696.219131 3208.672830,5744.680650"/>
    <poly id="152195282" type="unknown" color="51,128,255" fill="0" layer="-1.00" shape="3210.281741,5749.438015 3226.669147,5763.512984 3250.184145,5781.708673 3258.827762,5788.394064 3301.478546,5820.590539 3322.104097,5835.771108 3355.062187,5856.292639 3400.437103,5875.780849"/>
    <poly id="152195285" type="unknown" color="51,128,255" fill="0" layer="-1.00" shape="3455.193865,5574.392347 3396.465596,5499.010269 3351.559058,5440.955124 3305.576519,5378.664583"/>
    <poly id="152195287" type="unknown" color="51,128,255" fill="0" layer="-1.00" shape="2751.482346,6345.187547 2804.706873,6338.235564 2849.859553,6332.545435 2945.689540,6320.307020 2961.963490,6326.259908"/>
    <poly id="158473530" type="unknown" color="51,128,255" fill="0" layer="-1.00" shape="1324.670673,7429.337836 1249.026615,7459.666506 1241.064031,7462.855523"/>
    <poly id="158473535" type="unknown" color="51,128,255" fill="0" layer="-1.00" shape="1200.338409,7881.839472 1070.611159,7881.316960"/>
    <poly id="158473563" type="unknown" color="51,128,255" fill="0" layer="-1.00" shape="1200.162476,7599.496230 1200.137384,7615.356884"/>
    <poly id="158473570" type="unknown" color="51,128,255" fill="0" layer="-1.00" shape="1272.486555,7704.169522 1200.211678,7704.032792 1131.068341,7704.013853 1064.397811,7704.003347"/>
    <poly id="158473576" type="unknown" color="51,128,255" fill="0" layer="-1.00" shape="1612.749463,7751.844286 1619.145562,7745.072225"/>
    <poly id="158473584" type="unknown" color="51,128,255" fill="0" layer="-1.00" shape="1612.749463,7751.844286 1575.012796,7792.132010 1567.398366,7800.113268"/>
    <poly id="158656447" type="unknown" color="51,128,255" fill="0" layer="-1.00" shape="1277.472269,6920.819633 1234.890695,6926.731633 1224.800471,6928.132543"/>
    <poly id="158782344" type="unknown" color="51,128,255" fill="1" layer="-1.00" shape="1224.800471,6928.132543 1223.857908,6919.616440 1224.299604,6911.051716 1226.119751,6902.671231 1229.271090,6894.686470 1233.675590,6887.309508 1239.213767,6880.731045 1245.735156,6875.131290 1253.088230,6870.635056 1261.060134,6867.379410 1269.426694,6865.446219 1277.418851,6864.861261 1285.413356,6865.473256 1293.225159,6867.263570 1300.679044,6870.191219 1307.609841,6874.203942 1318.227828,6883.776520 1325.906756,6895.799235 1330.096764,6909.418096 1330.170416,6926.163491 1325.005749,6942.089053 1315.116970,6955.644390 1301.493900,6965.469526 1293.644281,6968.678487 1283.845204,6970.816376 1273.826151,6971.107570 1263.925171,6969.523443 1254.492476,6966.134884 1245.858612,6961.057491 1238.334672,6954.462650 1232.191993,6946.589006 1227.620493,6937.710009 1224.800471,6928.132543"/>