<?xml version="1.0" encoding="UTF-8"?>

<!-- generated on 04/28/19 14:47:36 by Eclipse SUMO duarouter Version 1.2.0
<configuration xmlns:xsi="http://www.w3.org/2001/XMLSchema-instance" xsi:noNamespaceSchemaLocation="http://sumo.dlr.de/xsd/duarouterConfiguration.xsd">

    <input>
        <net-file value="map_edited.net.xml"/>
        <route-files value="trips.trips.xml"/>
    </input>

    <output>
        <output-file value="map.rou.xml"/>
        <alternatives-output value="map.rou.alt.xml"/>
    </output>

    <time>
        <begin value="0"/>
        <end value="10.0"/>
    </time>

    <report>
        <no-warnings value="true"/>
        <ignore-errors value="true"/>
        <no-step-log value="true"/>
    </report>

</configuration>
-->

<routes xmlns:xsi="http://www.w3.org/2001/XMLSchema-instance" xsi:noNamespaceSchemaLocation="http://sumo.dlr.de/xsd/routes_file.xsd">

    <vType id="routeByDistance" maxSpeed="10"/>
    <vehicle id="0" depart="0.00" >
        <route edges="-497943357#4 -303889712#0 259871068#0 298812493#0 298812493#1 496493914 38367679#0 38367679#2 -496253672 -286847289#0 -286094877 -286094874#4 -160253722#7 -160253722#3 286852568 160253726 -413128684 41389179 496261701#0 286852570#0 286852570#1 316267745#0 186109367#0 186109367#4 298597679#0 298597679#3 496261719#0 586981669#0 -298597678#3"/>
    </vehicle>
    <vehicle id="1" depart="0.00">
        <route edges="158782348#5 -158782348#7 -158782348#3 520228064#1"/>
    </vehicle>
    <vehicle id="2" depart="0.00">
        <route edges="286841509#0 -286841509#2 -279365144#3 -279365144#0 279365152#0 279365152#2 158782355#1 243773566#0"/>
    </vehicle>
    <vehicle id="3" depart="0.00">
        <route edges="162442431#0 306997515#4 642810484#0 642810484#3 38367677#0 301189807#1 301189807#3 301189807#7 301189807#9 -256288449#4 -256288449#2 -256288449#0 315702598#0 108071734#0 592381353 496257373#0 405115647#0 313194389#1 496257368#0 496714508#0 298600773#0 298600773#1"/>
    </vehicle>
    <vehicle id="4" depart="0.00">
        <route edges="-413128684 413128683 41389178 107538178#0 107538178#1 160253722#0 160253722#4 286094874#0 -306997497#2 -24430153#1 319713269#3 319713269#4 319713269#5 319713269#6 319713269#7 319713269#8 107538158#0 250710098#0"/>
    </vehicle>
    <vehicle id="5" depart="0.00">
        <route edges="298597681#4 298600770#0 298600770#4 -298597680#5 -298597680#4 -298597680#3"/>
    </vehicle>


    <vehicle id="6" depart="0.00">
        <route edges="-160253727 307096544#4 107538178#0 107538178#1 160253722#0 160253722#4 286094874#0 286094877 286847289#0 24452783#0 496253679#0 521131211 521131212#0"/>
    </vehicle>

  
        
    <vehicle id="7" depart="0.00">
        <route edges="160253725#9 -298600770#3 405115644#0 405115644#3 279049709#0 316267746#0 -152193611#2"/>
    </vehicle>


    <vehicle id="8"  depart="0.00" color="red" >

        <route edges="313194185#3 313194185#6 313194185#11 313194185#14 496257370#0 405115648#1 313194390#0 675775398 496257372 -315702598#2 -228022792#6 -228022792#2 72871344 72871329#2 72871329#3 27067581 228022808#0 228022808#2 228022808#4 228022808#6 306974310#0 306974310#1"/>

        <!--<stop container="senderAddr_stop" duration="100" parking="true"> -->
        
    </vehicle>


    <vehicle id="9" depart="0.00">
        <route edges="504026227#2 504026227#6 162442431#0 162442431#4 -306997495 -315886536#3 -315886536#0 -315886535#1 -562025614#0 561994814#0 561994814#1 -306997494 -297896463#3 -297896463#2 -297896463#1 -297757247#3 -297757247#2 -152086640#6 -152086640#4 -152086640#0 -497944541 111343191 -497944542 -111343189#1 -253751064#8 -405115644#5 -405115644#2 298600770#0 298600770#4 -298597680#5 -298597680#4 -298597680#3 -392464672#2"/>
    </vehicle>
</routes>
