<?xml version="1.0" encoding="UTF-8"?>

<!-- generated on 04/28/19 14:23:32 by Eclipse SUMO polyconvert Version 1.2.0
<configuration xmlns:xsi="http://www.w3.org/2001/XMLSchema-instance" xsi:noNamespaceSchemaLocation="http://sumo.dlr.de/xsd/polyconvertConfiguration.xsd">

    <input>
        <net-file value="map_edited.net.xml"/>
        <osm-files value="map2.osm"/>
        <type-file value="typemap.xml"/>
    </input>

    <output>
        <output-file value="tainan.poly.xml"/>
    </output>

    <processing>
        <poi-layer-offset value="5"/>
    </processing>

</configuration>
-->

<additional xmlns:xsi="http://www.w3.org/2001/XMLSchema-instance" xsi:noNamespaceSchemaLocation="http://sumo.dlr.de/xsd/additional_file.xsd">
    <location netOffset="-211697.00,-2544150.77" convBoundary="-2299.35,-4697.74,4825.79,4700.84" origBoundary="120.165094,22.935618,120.234651,23.023516" projParameter="+proj=utm +zone=51 +ellps=WGS84 +datum=WGS84 +units=m +no_defs"/>

    <poly id="108037253" type="water" color="181,209,209" fill="0" layer="-4.00" shape="2811.048736,117.937855 2802.344609,134.029573 2804.978631,166.818766 2801.610406,200.730520 2782.117583,227.966192 2776.616787,254.947199 2796.126037,280.444592 2807.718545,311.079761 2806.350456,344.942451 2797.010507,379.954042 2781.224970,392.201475 2754.814282,371.800450 2716.345257,348.647207 2688.085275,336.239089 2640.958600,332.158318 2614.566760,312.765709 2600.973557,282.168666 2590.480419,256.489027 2560.257761,246.113382 2519.415321,256.842466 2488.803015,278.327278 2469.262859,303.580459 2438.564606,321.077102 2406.531086,320.699946 2368.164421,303.508291 2348.588785,274.022696 2347.926570,239.212063 2334.238115,203.640669 2298.630653,173.462625 2273.053815,144.091273 2247.296277,105.768207 2225.700892,75.323666 2226.792521,27.534517 2252.373957,-5.425883 2257.936285,-14.032493 2264.296011,-22.798352"/>
    <poly id="108071699" type="leisure" color="207,245,201" fill="1" layer="-2.00" shape="3647.753719,2105.373705 3761.869108,2095.686002 3758.799081,2059.824037 3644.683416,2069.511734 3647.753719,2105.373705"/>
    <poly id="108071699#1" type="sport" color="79,230,125" fill="1" layer="-2.00" shape="3647.753719,2105.373705 3761.869108,2095.686002 3758.799081,2059.824037 3644.683416,2069.511734 3647.753719,2105.373705"/>
    <poly id="108071719" type="leisure" color="207,245,201" fill="1" layer="-2.00" shape="3761.656750,1578.023658 3793.947260,1575.339571 3788.206198,1506.788942 3755.905283,1509.473219 3761.656750,1578.023658"/>
    <poly id="108071719#1" type="sport" color="79,230,125" fill="1" layer="-2.00" shape="3761.656750,1578.023658 3793.947260,1575.339571 3788.206198,1506.788942 3755.905283,1509.473219 3761.656750,1578.023658"/>
    <poly id="108071726" type="leisure" color="207,245,201" fill="1" layer="-2.00" shape="3911.181048,1343.158347 3908.519294,1302.279161 3802.583946,1309.150163 3805.256039,1350.018087 3911.181048,1343.158347"/>
    <poly id="108071726#1" type="sport" color="79,230,125" fill="1" layer="-2.00" shape="3911.181048,1343.158347 3908.519294,1302.279161 3802.583946,1309.150163 3805.256039,1350.018087 3911.181048,1343.158347"/>
    <poly id="108071729" type="leisure" color="207,245,201" fill="1" layer="-2.00" shape="3682.263525,2047.143284 3738.081721,2041.851936 3735.371235,2013.597206 3679.563188,2018.888358 3682.263525,2047.143284"/>
    <poly id="108071729#1" type="sport" color="79,230,125" fill="1" layer="-2.00" shape="3682.263525,2047.143284 3738.081721,2041.851936 3735.371235,2013.597206 3679.563188,2018.888358 3682.263525,2047.143284"/>
    <poly id="111343182" type="amenity" color="237,199,199" fill="1" layer="-1.00" shape="3596.047124,2339.452568 3786.355688,2305.046194 3770.849882,2148.925026 3581.232090,2166.294678 3596.047124,2339.452568"/>
    <poly id="111343184" type="amenity" color="237,199,199" fill="1" layer="-1.00" shape="3192.412078,2203.107372 3554.011847,2174.956772 3567.780413,2344.853930 3384.591881,2381.366889 3204.895194,2416.408342 3192.412078,2203.107372"/>
    <poly id="111343185" type="amenity" color="237,199,199" fill="1" layer="-1.00" shape="3555.130740,1365.761910 3599.168639,1352.702757 3695.767369,1342.626810 3685.526577,1200.137834 3632.011449,1206.382823 3622.295012,1215.078687 3582.327542,1217.165954 3571.239588,1259.070476 3563.719746,1286.754347 3555.130740,1365.761910"/>
    <poly id="111343187" type="amenity" color="237,199,199" fill="1" layer="-1.00" shape="3510.457218,1440.554762 3705.323089,1422.409884 3769.105498,2101.256677 3574.238302,2119.401857 3510.457218,1440.554762"/>
    <poly id="111343188" type="tourism" color="207,245,201" fill="1" layer="-2.00" shape="2392.381697,2582.630841 2658.169826,2517.490913 2573.773751,2097.548880 2566.155382,2091.343168 2388.597901,2146.214479 2199.007692,2214.096169 2194.579614,2227.790672 2194.662016,2235.347834 2356.439246,2517.891246 2392.381697,2582.630841"/>
    <poly id="111343190" type="amenity" color="237,199,199" fill="1" layer="-1.00" shape="3255.586351,1221.787238 3339.775498,1213.063905 3342.422013,1247.648288 3405.504779,1274.658408 3454.978669,1273.376813 3456.105159,1310.605603 3453.911683,1331.294920 3451.075276,1350.544548 3450.363009,1377.379047 3388.624421,1377.397064 3388.634989,1483.461773 3325.789625,1488.399807 3329.392745,1635.614379 3137.920622,1644.844711 3130.941517,1529.070252 3127.675982,1526.228470 3125.293583,1459.099098 3118.830089,1410.489452 3117.647653,1396.846450 3190.405848,1367.602688 3266.664819,1364.404619 3262.899541,1306.555914 3284.944702,1304.652573 3281.049046,1259.939786 3259.003818,1261.843125 3255.586351,1221.787238"/>
    <poly id="111343193" type="amenity" color="237,199,199" fill="1" layer="-1.00" shape="2825.094672,2483.173075 3189.876036,2415.950911 3172.543042,2216.340956 3158.599116,2208.758855 2933.711597,2238.787354 2888.030820,2245.684618 2789.487664,2261.123408 2825.094672,2483.173075"/>
    <poly id="111343194" type="amenity" color="237,199,199" fill="1" layer="-1.00" shape="3188.642372,2160.187621 3549.983511,2126.999172 3504.770870,1639.093546 3143.417827,1672.281837 3188.642372,2160.187621"/>
    <poly id="117916592" type="water" color="181,209,209" fill="0" layer="-4.00" shape="3834.850827,1189.208342 3807.920009,1218.135095 3810.818410,1255.241586 3793.692955,1279.616017 3770.044869,1308.491792 3768.470482,1341.305199 3846.210884,1673.221535 3859.255461,1723.258212 3861.118439,1763.664890 3868.872170,1824.729614 3891.410945,1853.816941 3904.465598,1904.939576 3927.169694,1942.768309 3952.006519,1977.276115 3988.293381,2035.617354 4012.653850,2103.516287 4026.763049,2151.837168 4034.544070,2185.648250 4049.994442,2196.416671 4096.050577,2224.527136 4128.470688,2229.311093 4153.673500,2230.607522 4178.728007,2252.809340 4213.281575,2294.448412"/>
    <poly id="152193626" type="tourism" color="207,245,201" fill="1" layer="-2.00" shape="4187.454859,2223.285376 4186.764710,2204.701157 4137.919159,2191.294938 4125.200552,2184.996611 4108.978860,2215.338506 4114.551185,2220.275832 4180.484314,2225.789005 4187.454859,2223.285376"/>
    <poly id="158782360" type="parking" color="184,184,179" fill="1" layer="-1.00" shape="1298.307699,1866.364688 1303.158167,1879.106429 1311.931779,1871.091852 1318.473808,1861.202511 1324.779082,1844.290912 1324.507138,1839.186725 1310.417988,1840.730474 1310.081509,1846.212033 1307.791372,1852.551080 1304.188682,1859.469368 1298.307699,1866.364688"/>
    <poly id="158782364" type="parking" color="184,184,179" fill="1" layer="-1.00" shape="1306.973565,1822.098823 1318.258926,1816.119918 1313.013881,1806.356024 1300.890435,1795.859053 1289.513689,1789.537295 1279.323008,1787.293689 1276.398874,1800.727059 1280.490466,1802.211619 1294.634344,1807.826587 1302.354320,1813.941131 1306.973565,1822.098823"/>
    <poly id="158782365" type="parking" color="184,184,179" fill="1" layer="-1.00" shape="1277.989031,1888.243369 1276.220876,1874.644741 1265.303842,1874.121853 1255.429575,1871.251560 1245.288649,1864.629143 1239.882090,1854.469358 1225.769949,1858.030783 1232.478131,1870.260426 1240.191475,1877.638557 1249.720560,1883.386001 1259.329012,1887.380779 1268.409751,1888.459663 1277.989031,1888.243369"/>
    <poly id="158782366" type="tourism" color="207,245,201" fill="1" layer="-2.00" shape="1233.278427,1834.823010 1236.227214,1824.292970 1242.307496,1816.551488 1249.857299,1810.001087 1255.924696,1807.491159 1262.380154,1825.289442 1259.170158,1830.205251 1233.278427,1834.823010"/>
    <poly id="158782369" type="parking" color="184,184,179" fill="1" layer="-1.00" shape="1233.278427,1834.823010 1221.405231,1833.664510 1224.718385,1818.040283 1229.410474,1809.604913 1235.928208,1801.666654 1248.649985,1791.925186 1255.924696,1807.491159 1249.857299,1810.001087 1242.307496,1816.551488 1236.227214,1824.292970 1233.278427,1834.823010"/>
    <poly id="158782370" type="tourism" color="207,245,201" fill="1" layer="-2.00" shape="1298.307699,1866.364688 1295.238268,1856.082651 1293.263050,1846.145456 1297.863988,1842.067573 1310.417988,1840.730474 1310.081509,1846.212033 1307.791372,1852.551080 1304.188682,1859.469368 1298.307699,1866.364688"/>
    <poly id="158782372" type="tourism" color="207,245,201" fill="1" layer="-2.00" shape="1239.882090,1854.469358 1264.369841,1848.869858 1269.795920,1852.534483 1276.220876,1874.644741 1265.303842,1874.121853 1255.429575,1871.251560 1245.288649,1864.629143 1239.882090,1854.469358"/>
    <poly id="158782375" type="tourism" color="207,245,201" fill="1" layer="-2.00" shape="1290.799841,1825.167572 1284.307887,1821.567637 1276.398874,1800.727059 1280.490466,1802.211619 1294.634344,1807.826587 1302.354320,1813.941131 1306.973565,1822.098823 1290.799841,1825.167572"/>
    <poly id="158897632" type="parking" color="184,184,179" fill="1" layer="-1.00" shape="1408.879184,2440.736896 1381.276653,2370.253784 1377.027100,2366.400415 1376.766184,2362.947423 1370.243738,2361.498215 1365.147076,2349.825168 1365.636248,2339.984969 1357.864669,2341.895693 1256.209415,2384.502848 1252.967589,2387.745711 1252.587759,2390.956037 1285.048622,2472.418319 1291.584230,2481.536856 1298.208195,2485.078822 1309.837070,2487.438980 1317.512287,2487.469633 1324.259268,2484.026800 1347.378581,2468.079519 1358.534639,2461.803804 1394.450199,2445.944605 1408.879184,2440.736896"/>
    <poly id="158995065" type="amenity" color="237,199,199" fill="1" layer="-1.00" shape="2330.106818,2150.686253 2280.166907,2020.146432 2275.515881,2022.141306 2256.399130,2028.523521 2109.813910,2081.046107 2141.811101,2123.328387 2144.938554,2128.610897 2180.528922,2194.709041 2182.624524,2198.071656 2330.106818,2150.686253"/>
    <poly id="158995070" type="amenity" color="237,199,199" fill="1" layer="-1.00" shape="1536.566047,1879.625048 1558.988358,1863.115227 1553.856730,1844.770679 1568.971242,1837.278057 1602.599566,1822.449649 1605.563063,1823.966907 1614.734623,1823.891612 1653.493959,1939.215506 1647.945019,1941.471547 1656.141690,1963.437251 1615.792828,1978.792841 1566.477614,1997.977182 1563.254872,1997.927871 1524.540724,1893.065850 1521.788900,1885.437701 1536.566047,1879.625048"/>
    <poly id="158995072" type="amenity" color="237,199,199" fill="1" layer="-1.00" shape="1542.027838,2307.034679 1532.831649,2312.253151 1479.757735,2321.523697 1363.730850,2328.328532 1328.694552,2329.541059 1328.453517,2238.529895 1319.915682,2218.599077 1319.226013,2206.132500 1317.470416,2173.858330 1317.089403,2166.805571 1357.429482,2156.935458 1371.026450,2156.498361 1383.902195,2157.515878 1397.798003,2158.757752 1403.015264,2158.480758 1409.098938,2157.367056 1414.613092,2155.444074 1420.792634,2151.291734 1428.077883,2146.475449 1434.681440,2141.960352 1439.790513,2139.779119 1532.864224,2267.210218 1521.732682,2271.556822 1542.027838,2307.034679"/>
    <poly id="158995081" type="tourism" color="207,245,201" fill="1" layer="-2.00" shape="1602.599566,1822.449649 1588.344140,1780.339448 1577.737979,1760.625315 1568.429243,1743.302567 1516.608456,1765.649192 1480.344342,1780.007200 1512.681665,1861.472277 1515.987691,1870.719081 1532.524282,1867.311147 1536.566047,1879.625048 1558.988358,1863.115227 1553.856730,1844.770679 1568.971242,1837.278057 1602.599566,1822.449649"/>
    <poly id="159216699" type="tourism" color="207,245,201" fill="1" layer="-2.00" shape="1804.867410,1252.127679 1795.247613,1245.395189 1784.056478,1241.818133 1772.285259,1241.721190 1761.032337,1245.127750 1751.317529,1251.708033 1744.012190,1260.880175 1739.787709,1271.800125 1739.035352,1283.462930 1741.548199,1294.165720 1746.973904,1303.726801 1754.887593,1311.389537 1764.641275,1316.534547 1775.457629,1318.755495 1786.460996,1317.869586 1796.100312,1314.327560 1804.462711,1308.393751 1810.981817,1300.500117 1815.195728,1291.176374 1816.819656,1281.092943 1815.733138,1270.928194 1812.021912,1261.411985 1804.867410,1252.127679"/>
    <poly id="159270408" type="amenity" color="237,199,199" fill="1" layer="-1.00" shape="1847.315419,176.935675 1855.742884,264.310089 1857.458533,272.490037 1868.442717,353.487233 1843.771712,375.990765 1838.457218,432.039994 1835.870335,435.757834 1849.402166,496.435319 1853.829112,498.811417 2061.236507,456.357100 2087.722139,453.159519 2090.145890,462.966302 2168.424574,445.926232 2162.130775,411.244922 2157.135272,404.335464 2114.866733,195.147501 2104.023502,165.141240 2100.817105,164.891958 1898.057615,172.521950 1847.315419,176.935675"/>
    <poly id="159270409" type="amenity" color="237,199,199" fill="1" layer="-1.00" shape="2130.400787,566.392649 2103.550243,566.582507 2088.193263,490.833320 2092.475284,488.834392 2090.145890,462.966302 2168.424574,445.926232 2162.130775,411.244922 2157.135272,404.335464 2208.520084,376.580420 2207.199536,373.513354 2234.768074,359.810779 2273.685408,325.587970 2281.405302,327.912613 2296.037433,351.595960 2309.641888,364.415218 2340.211427,379.538424 2359.140329,387.978330 2371.133812,392.715422 2371.018644,400.686391 2364.140489,415.635397 2355.333815,430.078023 2261.155847,547.733269 2252.103187,554.633033 2130.400787,566.392649"/>
    <poly id="159270410" type="amenity" color="237,199,199" fill="1" layer="-1.00" shape="1779.498585,664.259546 1763.000329,549.186887 1766.793509,543.617305 1818.797809,526.344754 1832.768794,521.767101 1835.637484,514.530516 1981.592028,484.651025 1983.290158,500.534121 1986.991311,500.363867 1987.157580,507.476100 1997.800491,507.029533 1995.914420,481.817982 2015.225811,478.546347 2033.800353,584.746202 2038.459439,590.154716 2031.053439,611.309478 2008.229984,624.667208 1995.132990,636.875449 1998.101667,655.893048 1988.364997,657.042770 1989.122337,676.867236 1914.644459,689.746292 1915.948782,720.499450 1843.398313,725.739094 1841.817663,671.882731 1805.899802,667.956774 1787.657627,665.400734 1779.498585,664.259546"/>
    <poly id="159270413" type="amenity" color="237,199,199" fill="1" layer="-1.00" shape="1566.750605,918.199299 1560.336806,892.896766 1558.625544,886.567649 1517.279713,895.004055 1511.167277,896.251194 1502.322421,898.958054 1484.653019,904.360320 1472.604860,908.048245 1447.712103,802.201938 1446.547925,798.732942 1502.866336,784.435764 1485.252488,709.417048 1486.124498,708.868411 1495.092029,706.669044 1493.857015,701.638661 1546.852009,689.001108 1622.139248,673.367204 1643.316533,669.483132 1655.629058,750.122489 1611.854611,759.292063 1630.266723,833.697124 1577.226907,884.295329 1584.573013,913.824951 1566.750605,918.199299"/>
    <poly id="159270415" type="amenity" color="237,199,199" fill="0" layer="-1.00" shape="1723.563350,969.881476 1711.185903,909.492371 1705.445292,903.871832 1573.141816,936.940996 1505.638848,953.368830 1498.931044,964.280834 1513.695183,1031.396173 1523.718157,1083.972138 1645.736556,1080.380422"/>
    <poly id="159270420" type="tourism" color="207,245,201" fill="1" layer="-2.00" shape="1324.910506,1133.508270 1505.433528,1091.536296 1475.304467,963.468293 1343.384061,996.676374 1352.999949,1042.410630 1306.353555,1054.816959 1324.910506,1133.508270"/>
    <poly id="159276145" type="amenity" color="237,199,199" fill="1" layer="-1.00" shape="2930.822520,865.911351 2930.435681,839.596343 2955.507395,825.199898 2975.607435,781.339290 3042.562764,790.043000 3042.007114,908.886397 3018.644465,1011.139165 2988.990683,1016.035663 2983.359745,947.527147 2975.399600,945.494918 2953.734959,939.367263 2942.734644,924.214978 2937.194572,906.432063 2930.822520,865.911351"/>
    <poly id="159276146" type="amenity" color="237,199,199" fill="1" layer="-1.00" shape="3195.899026,677.721138 3208.776111,717.708398 3259.139869,877.391033 3251.560961,884.095967 3068.245540,905.684072 3055.155807,789.637722 3048.513315,726.202315 3195.899026,677.721138"/>
    <poly id="159276147" type="amenity" color="237,199,199" fill="1" layer="-1.00" shape="2657.115610,934.429337 2653.276869,840.982919 2672.497703,836.749574 2670.902585,805.193000 2668.715612,786.227016 2694.164463,777.641587 2700.351050,797.030299 2710.462764,794.023024 2710.528005,833.632841 2705.776441,867.615313 2715.234258,902.014897 2705.454098,934.341808 2709.954603,943.843173 2766.407026,939.301385 2765.845416,988.587577 2758.679487,996.493007 2758.737527,1022.226896 2796.322640,1030.268392 2807.029582,1107.203416 2744.823824,1111.333559 2740.080524,1086.353690 2716.098582,1029.022084 2708.963512,984.559219 2677.581547,984.911851 2674.735329,933.961426 2657.115610,934.429337"/>
    <poly id="159277239" type="amenity" color="237,199,199" fill="1" layer="-1.00" shape="3094.090591,1416.932856 3078.403288,1425.653812 3055.681358,1443.784895 3037.732674,1465.261146 3023.610217,1489.923200 3011.800846,1512.114150 2997.879941,1524.691834 2981.916809,1532.387423 2957.119837,1535.252334 2930.006158,1526.889774 2914.659299,1522.193901 2879.424257,1511.403339 2846.891651,1501.359490 2843.080392,1451.979054 2867.373339,1450.121026 2877.009074,1449.627634 2876.422044,1440.872047 2867.424345,1441.464147 2859.089170,1432.102114 2857.874253,1412.441591 2874.343906,1411.419373 2892.951567,1385.208985 2924.193755,1377.544504 2941.913643,1373.195853 2929.779110,1331.809276 2956.770129,1323.970713 2959.711410,1336.749084 3001.568847,1327.209635 2995.486577,1300.858696 2985.266004,1256.509809 2984.035888,1251.168949 3083.230348,1237.792474 3094.090591,1416.932856"/>
    <poly id="159277241" type="amenity" color="237,199,199" fill="1" layer="-1.00" shape="3362.154676,910.592862 3338.139708,933.646598 3345.310919,946.566455 3357.704359,943.760176 3441.614486,991.145311 3454.068294,996.938412 3462.739188,998.580586 3513.945687,1010.167121 3527.510131,1007.970519 3574.140334,1016.319064 3581.969325,999.523996 3603.373820,987.071188 3617.970583,948.912831 3615.764398,940.243361 3657.799650,841.971819 3625.802202,751.874390 3600.579118,680.855555 3589.468664,649.568051 3527.481641,650.166152 3465.662125,767.343887 3427.453056,802.713739 3400.156754,826.982179 3381.593039,852.348580 3393.758899,864.054374 3370.076365,917.635561 3362.154676,910.592862"/>
    <poly id="159277244" type="amenity" color="237,199,199" fill="1" layer="-1.00" shape="3216.770489,1201.831565 3140.599060,1145.888799 3197.155597,1079.281344 3218.339265,1047.636241 3233.237594,1024.345140 3258.439358,978.404314 3379.722883,1046.492691 3388.195363,1042.541638 3395.550870,1051.656526 3391.281000,1068.905140 3400.644814,1074.623784 3431.099264,1093.563650 3444.188615,1113.941065 3420.038090,1153.644021 3388.352036,1125.484272 3361.349699,1155.477242 3333.313194,1135.804513 3310.622748,1165.372239 3291.677591,1190.070000 3260.971218,1170.292882 3251.632492,1164.274606 3243.609832,1166.510422 3216.770489,1201.831565"/>
    <poly id="159277247" type="leisure" color="207,245,201" fill="1" layer="-2.00" shape="3149.171218,1283.444489 3143.928483,1285.095622 3139.040426,1287.593423 3134.649807,1290.890849 3130.887865,1294.874579 3127.844813,1299.432068 3125.641422,1304.439111 3124.305730,1309.751095 3123.906382,1315.200470 3124.430386,1320.643402 3125.842132,1325.825656 3128.110008,1330.703501 3131.159690,1335.145349 3134.916643,1339.008536 3139.266567,1342.217651 3144.083643,1344.631002 3149.254834,1346.239651 3154.604087,1346.958276 3160.008108,1346.778133 3231.079832,1341.118152 3236.400028,1339.764822 3241.406162,1337.541889 3245.976412,1334.518164 3249.978907,1330.773729 3253.292874,1326.432789 3255.837938,1321.585534 3257.535194,1316.399705 3258.325412,1310.998339 3258.286149,1309.469620 3258.748938,1308.984268 3258.191018,1305.536934 3257.165725,1300.170012 3255.231961,1295.053070 3252.464258,1290.328774 3248.947194,1286.128516 3244.775185,1282.561337 3240.053115,1279.747161 3234.926055,1277.760817 3229.549124,1276.665862 3224.045408,1276.459960 3149.171218,1283.444489"/>
    <poly id="159277247#1" type="sport" color="79,230,125" fill="1" layer="-2.00" shape="3149.171218,1283.444489 3143.928483,1285.095622 3139.040426,1287.593423 3134.649807,1290.890849 3130.887865,1294.874579 3127.844813,1299.432068 3125.641422,1304.439111 3124.305730,1309.751095 3123.906382,1315.200470 3124.430386,1320.643402 3125.842132,1325.825656 3128.110008,1330.703501 3131.159690,1335.145349 3134.916643,1339.008536 3139.266567,1342.217651 3144.083643,1344.631002 3149.254834,1346.239651 3154.604087,1346.958276 3160.008108,1346.778133 3231.079832,1341.118152 3236.400028,1339.764822 3241.406162,1337.541889 3245.976412,1334.518164 3249.978907,1330.773729 3253.292874,1326.432789 3255.837938,1321.585534 3257.535194,1316.399705 3258.325412,1310.998339 3258.286149,1309.469620 3258.748938,1308.984268 3258.191018,1305.536934 3257.165725,1300.170012 3255.231961,1295.053070 3252.464258,1290.328774 3248.947194,1286.128516 3244.775185,1282.561337 3240.053115,1279.747161 3234.926055,1277.760817 3229.549124,1276.665862 3224.045408,1276.459960 3149.171218,1283.444489"/>
    <poly id="159277248" type="leisure" color="207,245,201" fill="1" layer="-2.00" shape="3237.470654,1266.939791 3233.781442,1229.870403 3199.472666,1233.303221 3203.172388,1269.840424 3237.470654,1266.939791"/>
    <poly id="159277248#1" type="sport" color="79,230,125" fill="1" layer="-2.00" shape="3237.470654,1266.939791 3233.781442,1229.870403 3199.472666,1233.303221 3203.172388,1269.840424 3237.470654,1266.939791"/>
    <poly id="159277250" type="leisure" color="207,245,201" fill="1" layer="-2.00" shape="3237.470654,1266.939791 3255.393552,1265.170040 3251.714852,1228.111538 3233.781442,1229.870403 3237.470654,1266.939791"/>
    <poly id="159277250#1" type="sport" color="79,230,125" fill="1" layer="-2.00" shape="3237.470654,1266.939791 3255.393552,1265.170040 3251.714852,1228.111538 3233.781442,1229.870403 3237.470654,1266.939791"/>
    <poly id="159277252" type="leisure" color="207,245,201" fill="1" layer="-2.00" shape="3169.754813,1273.189913 3165.750598,1233.588474 3199.168262,1230.238985 3199.472666,1233.303221 3203.172388,1269.840424 3179.289503,1272.233158 3169.754813,1273.189913"/>
    <poly id="159277252#1" type="sport" color="79,230,125" fill="1" layer="-2.00" shape="3169.754813,1273.189913 3165.750598,1233.588474 3199.168262,1230.238985 3199.472666,1233.303221 3203.172388,1269.840424 3179.289503,1272.233158 3169.754813,1273.189913"/>
    <poly id="159314142" type="tourism" color="207,245,201" fill="1" layer="-2.00" shape="1988.883750,742.982956 1985.893718,687.834593 2152.485330,676.981145 2157.137592,686.346507 2042.550601,845.344508 2032.539887,848.261663 1988.883750,742.982956"/>
    <poly id="159476056" type="building" color="255,230,230" fill="1" layer="-1.00" shape="1015.338439,728.600151 1057.419575,728.549456 1055.624764,819.865556 1024.531604,820.337985 1024.216574,792.048415 1015.966047,792.028800 1015.338439,728.600151"/>
    <poly id="159476056#1" type="tourism" color="207,245,201" fill="1" layer="-2.00" shape="1015.338439,728.600151 1057.419575,728.549456 1055.624764,819.865556 1024.531604,820.337985 1024.216574,792.048415 1015.966047,792.028800 1015.338439,728.600151"/>
    <poly id="159476060" type="building" color="255,230,230" fill="1" layer="-1.00" shape="1007.846301,696.324802 1026.483061,695.890969 1026.728523,704.974558 1055.571768,703.813671 1055.306655,694.774792 1062.539392,694.691971 1062.325614,678.137657 1155.394622,675.328440 1155.453445,657.461105 1228.250956,654.917759 1227.917639,607.920061 1061.353550,611.168977 1061.127879,611.173290 1007.109046,612.128203 1007.846301,696.324802"/>
    <poly id="159476060#1" type="shop" color="237,199,255" fill="1" layer="-1.00" shape="1007.846301,696.324802 1026.483061,695.890969 1026.728523,704.974558 1055.571768,703.813671 1055.306655,694.774792 1062.539392,694.691971 1062.325614,678.137657 1155.394622,675.328440 1155.453445,657.461105 1228.250956,654.917759 1227.917639,607.920061 1061.353550,611.168977 1061.127879,611.173290 1007.109046,612.128203 1007.846301,696.324802"/>
    <poly id="160056963" type="tourism" color="207,245,201" fill="1" layer="-2.00" shape="1040.821411,1039.076381 1037.986387,1037.312921 1030.154224,1010.862792 1031.674602,1008.805487 1036.415255,1008.803527 1042.354821,1010.862304 1049.573056,1015.933457 1056.726254,1025.117749 1062.006959,1033.506592 1050.948648,1036.898878 1040.821411,1039.076381"/>
    <poly id="160056964" type="tourism" color="207,245,201" fill="1" layer="-2.00" shape="1015.965560,1079.163192 1025.265457,1078.796977 1032.753667,1099.601208 1023.189754,1100.648548 1015.096037,1098.087886 1011.846480,1092.353461 1009.528099,1082.190088 1015.965560,1079.163192"/>
    <poly id="160056965" type="tourism" color="207,245,201" fill="1" layer="-2.00" shape="1052.853967,1082.891287 1050.750711,1080.759172 1045.919771,1065.301691 1047.799670,1062.727684 1062.801516,1056.821690 1062.623229,1060.914826 1061.038337,1066.575424 1057.950320,1074.658743 1055.435697,1079.993533 1052.853967,1082.891287"/>
    <poly id="160088280" type="tourism" color="207,245,201" fill="1" layer="-2.00" shape="2743.495381,1132.139650 2833.232505,1124.294479 2845.511428,1248.336107 2754.427032,1258.678438 2743.495381,1132.139650"/>
    <poly id="160088282" type="amenity" color="237,199,199" fill="1" layer="-1.00" shape="2637.628886,1364.004963 2627.785825,1373.025372 2625.598971,1355.688602 2606.709754,1356.280521 2604.376287,1335.012027 2601.322973,1307.184923 2683.933109,1287.205225 2722.308185,1242.364955 2735.811080,1266.635260 2744.496901,1265.284286 2752.630878,1352.054604 2653.602413,1374.662477 2637.628886,1364.004963"/>
    <poly id="160088283" type="amenity" color="237,199,199" fill="1" layer="-1.00" shape="2462.178068,1452.959208 2449.154845,1303.451491 2447.861585,1296.959205 2444.707002,1294.026773 2440.344463,1293.400452 2395.716367,1299.691433 2395.109808,1303.404748 2391.054360,1304.357489 2391.902242,1312.786716 2380.679980,1314.031005 2388.432448,1338.044751 2379.804857,1340.835642 2372.095387,1319.082043 2361.821243,1323.777331 2378.820267,1457.859247 2462.178068,1452.959208"/>
    <poly id="160088284" type="amenity" color="237,199,199" fill="1" layer="-1.00" shape="1986.970265,1616.164042 1983.567864,1581.926402 2050.167869,1556.484812 2081.877709,1563.162300 2153.368100,1545.042674 2162.691898,1551.337662 2144.402025,1564.531435 2144.558118,1637.367118 2128.132648,1641.237706 2127.744237,1649.934320 2085.276073,1649.978642 2085.280369,1659.898011 2045.428255,1660.457850 2045.688784,1689.745756 2019.832618,1689.784067 1991.075467,1638.285441 1992.399972,1624.871699 1986.970265,1616.164042"/>
    <poly id="160088286" type="tourism" color="207,245,201" fill="1" layer="-2.00" shape="4023.529351,2188.605320 3999.105407,2109.757567 3979.140570,2115.798918 3956.086039,2122.308862 3863.414237,2133.595013 3810.036320,2137.155090 3801.663978,2152.320109 3822.512792,2294.785507 3835.808874,2303.400082 4060.903046,2257.244365 4082.085576,2227.185340 4023.529351,2188.605320"/>
    <poly id="160088287" type="amenity" color="237,199,199" fill="1" layer="-1.00" shape="3768.802724,1664.402449 3900.513047,1661.487195 3924.021286,1661.019993 3990.905233,1659.709678 3977.859765,1588.460073 3994.060128,1586.236111 3990.734098,1570.428187 3971.241274,1573.257531 3921.944971,1351.854265 3842.436324,1358.446511 3738.767272,1373.354634 3768.802724,1664.402449"/>
    <poly id="160088288" type="tourism" color="207,245,201" fill="1" layer="-2.00" shape="3919.278018,1960.572973 3903.457382,1927.556948 3899.663789,1899.522230 3786.900871,1901.602278 3781.555779,1908.131682 3785.869086,1986.883599 3831.778780,1986.612524 3876.742029,1974.290095 3919.278018,1960.572973"/>
    <poly id="160088289" type="tourism" color="207,245,201" fill="1" layer="-2.00" shape="3740.382178,1367.605205 3720.488536,1174.306055 3720.137792,1157.954148 3730.404253,1140.370439 3744.443742,1128.046221 3767.345284,1110.666591 3776.704830,1098.830021 3782.541457,1084.644065 3790.828124,1081.173337 3800.336433,1077.191831 3801.600360,1076.746745 3854.844834,1057.806413 3921.060584,1346.329498 3912.923982,1345.253295 3740.382178,1367.605205"/>
    <poly id="160088290" type="tourism" color="207,245,201" fill="1" layer="-2.00" shape="3894.025527,1667.838674 3756.102471,1669.397626 3775.518598,1878.665421 3786.235580,1887.062857 3899.556831,1884.118854 3910.485977,1876.630383 3894.025527,1667.838674"/>