<?xml version="1.0" encoding="UTF-8"?>

<!-- generated on 04/28/19 13:01:07 by Eclipse SUMO netconvert Version 1.2.0
<configuration xmlns:xsi="http://www.w3.org/2001/XMLSchema-instance" xsi:noNamespaceSchemaLocation="http://sumo.dlr.de/xsd/netconvertConfiguration.xsd">

    <input>
        <osm-files value="map2.osm"/>
    </input>

    <output>
        <output-file value="map_edited.net.xml"/>
    </output>

    <projection>
        <proj.utm value="true"/>
    </projection>

    <processing>
        <plain.extend-edge-shape value="true"/>
        <geometry.remove value="true"/>
        <geometry.avoid-overlap value="true"/>
        <roundabouts.guess value="true"/>
        <edges.join value="true"/>
    </processing>

    <tls_building>
        <tls.discard-simple value="true"/>
        <tls-guess.joining value="true"/>
        <tls.join value="true"/>
        <tls.guess-signals value="true"/>
    </tls_building>

    <ramp_guessing>
        <ramps.guess value="true"/>
    </ramp_guessing>

    <edge_removal>
        <remove-edges.by-vclass value="rail_urban,rail,rail_electric,motorcycle,moped,bicycle,pedestrian,ship,lightrail,cityrail,rail_slow,rail_fast"/>
        <remove-edges.by-type value="highway.motorway,highway.motorway_link,highway.pedestrian,highway.bus_guideway,highway.track,highway.path,highway.cycleway,highway.footway,highway.bridleway,highway.steps,highway.step,highway.stairs,highway.service,railway.rail,railway.subway,highway.tram,highway.light_rail,highway.preserved"/>
        <remove-edges.isolated value="true"/>
    </edge_removal>

    <junctions>
        <junctions.join value="true"/>
    </junctions>

    <report>
        <verbose value="true"/>
    </report>

</configuration>
-->

<net version="1.1" junctionCornerDetail="5" limitTurnSpeed="5.50" xmlns:xsi="http://www.w3.org/2001/XMLSchema-instance">

    <location netOffset="-211697.00,-2544150.77" convBoundary="0.00,0.00,4825.79,3055.31" origBoundary="120.165094,22.935618,120.234651,23.023516" projParameter="+proj=utm +zone=51 +ellps=WGS84 +datum=WGS84 +units=m +no_defs"/>

    <type id="highway.bridleway" priority="1" numLanes="1" speed="2.78" allow="pedestrian" oneway="1" width="2.00"/>
    <type id="highway.bus_guideway" priority="1" numLanes="1" speed="27.78" allow="bus" oneway="1"/>
    <type id="highway.cycleway" priority="1" numLanes="1" speed="8.33" allow="bicycle" oneway="0" width="1.00"/>
    <type id="highway.footway" priority="1" numLanes="1" speed="2.78" allow="pedestrian" oneway="1" width="2.00"/>
    <type id="highway.ford" priority="1" numLanes="1" speed="2.78" allow="army" oneway="0"/>
    <type id="highway.living_street" priority="2" numLanes="1" speed="2.78" disallow="tram rail_urban rail rail_electric ship" oneway="0"/>
    <type id="highway.motorway" priority="14" numLanes="2" speed="39.44" allow="private emergency authority army vip passenger hov taxi bus coach delivery truck trailer motorcycle evehicle custom1 custom2" oneway="1"/>
    <type id="highway.motorway_link" priority="9" numLanes="1" speed="22.22" allow="private emergency authority army vip passenger hov taxi bus coach delivery truck trailer motorcycle evehicle custom1 custom2" oneway="1"/>
    <type id="highway.path" priority="1" numLanes="1" speed="2.78" allow="bicycle pedestrian" oneway="1" width="2.00"/>
    <type id="highway.pedestrian" priority="1" numLanes="1" speed="2.78" allow="pedestrian" oneway="1" width="2.00"/>
    <type id="highway.primary" priority="12" numLanes="2" speed="27.78" disallow="tram rail_urban rail rail_electric ship" oneway="0"/>
    <type id="highway.primary_link" priority="7" numLanes="1" speed="22.22" disallow="tram rail_urban rail rail_electric ship" oneway="0"/>
    <type id="highway.raceway" priority="15" numLanes="2" speed="83.33" allow="vip" oneway="0"/>
    <type id="highway.residential" priority="3" numLanes="1" speed="13.89" disallow="tram rail_urban rail rail_electric ship" oneway="0"/>
    <type id="highway.secondary" priority="11" numLanes="2" speed="27.78" disallow="tram rail_urban rail rail_electric ship" oneway="0"/>
    <type id="highway.secondary_link" priority="6" numLanes="1" speed="22.22" disallow="tram rail_urban rail rail_electric ship" oneway="0"/>
    <type id="highway.service" priority="1" numLanes="1" speed="5.56" allow="delivery bicycle pedestrian" oneway="0"/>
    <type id="highway.stairs" priority="1" numLanes="1" speed="1.39" allow="pedestrian" oneway="1" width="2.00"/>
    <type id="highway.step" priority="1" numLanes="1" speed="1.39" allow="pedestrian" oneway="1" width="2.00"/>
    <type id="highway.steps" priority="1" numLanes="1" speed="1.39" allow="pedestrian" oneway="1" width="2.00"/>
    <type id="highway.tertiary" priority="10" numLanes="1" speed="22.22" disallow="tram rail_urban rail rail_electric ship" oneway="0"/>
    <type id="highway.tertiary_link" priority="5" numLanes="1" speed="22.22" disallow="tram rail_urban rail rail_electric ship" oneway="0"/>
    <type id="highway.track" priority="1" numLanes="1" speed="5.56" disallow="tram rail_urban rail rail_electric ship" oneway="0"/>
    <type id="highway.trunk" priority="13" numLanes="2" speed="27.78" disallow="tram rail_urban rail rail_electric bicycle pedestrian ship" oneway="0"/>
    <type id="highway.trunk_link" priority="8" numLanes="1" speed="22.22" disallow="tram rail_urban rail rail_electric bicycle pedestrian ship" oneway="0"/>
    <type id="highway.unclassified" priority="4" numLanes="1" speed="13.89" disallow="tram rail_urban rail rail_electric ship" oneway="0"/>
    <type id="highway.unsurfaced" priority="1" numLanes="1" speed="8.33" disallow="tram rail_urban rail rail_electric ship" oneway="0"/>
    <type id="railway.light_rail" priority="19" numLanes="1" speed="27.78" allow="rail_urban" oneway="1"/>
    <type id="railway.preserved" priority="16" numLanes="1" speed="27.78" allow="rail" oneway="1"/>
    <type id="railway.rail" priority="20" numLanes="1" speed="83.33" allow="rail rail_electric" oneway="1"/>
    <type id="railway.subway" priority="18" numLanes="1" speed="27.78" allow="rail_urban" oneway="1"/>
    <type id="railway.tram" priority="17" numLanes="1" speed="13.89" allow="tram" oneway="1"/>

    <edge id=":108071693#2-AddedOnRampNode_0" function="internal">
        <lane id=":108071693#2-AddedOnRampNode_0_0" index="0" disallow="tram rail_urban rail rail_electric ship" speed="22.22" length="8.00" shape="3422.35,370.28 3417.46,363.95"/>
    </edge>
    <edge id=":1235793284_0" function="internal">
        <lane id=":1235793284_0_0" index="0" disallow="tram rail_urban rail rail_electric ship" speed="6.50" length="9.03" shape="993.76,1353.24 992.84,1350.94 991.40,1349.50 989.45,1348.90 986.99,1349.15"/>
    </edge>
    <edge id=":1235793284_1" function="internal">
        <lane id=":1235793284_1_0" index="0" disallow="tram rail_urban rail rail_electric ship" speed="2.78" length="2.56" shape="993.76,1353.24 994.25,1351.89 994.93,1351.31 995.15,1351.36"/>
    </edge>
    <edge id=":1235793284_5" function="internal">
        <lane id=":1235793284_5_0" index="0" disallow="tram rail_urban rail rail_electric ship" speed="2.78" length="2.12" shape="995.15,1351.36 995.80,1351.51 996.87,1352.48"/>
    </edge>
    <edge id=":1235793284_2" function="internal">
        <lane id=":1235793284_2_0" index="0" disallow="tram rail_urban rail rail_electric ship" speed="6.52" length="9.05" shape="1000.96,1345.67 998.67,1346.60 997.22,1348.05 996.62,1350.01 996.87,1352.48"/>
    </edge>
    <edge id=":1235793284_3" function="internal">
        <lane id=":1235793284_3_0" index="0" disallow="tram rail_urban rail rail_electric ship" speed="22.22" length="14.40" shape="1000.96,1345.67 986.99,1349.15"/>
        <lane id=":1235793284_3_1" index="1" disallow="tram rail_urban rail rail_electric ship" speed="22.22" length="14.40" shape="1000.18,1342.57 986.22,1346.04"/>
    </edge>
    <edge id=":1235793758_0" function="internal">
        <lane id=":1235793758_0_0" index="0" disallow="tram rail_urban rail rail_electric ship" speed="6.24" length="9.05" shape="1720.80,898.62 1720.15,896.18 1718.87,894.65 1716.98,894.01 1714.47,894.27"/>
    </edge>
    <edge id=":1235793758_1" function="internal">
        <lane id=":1235793758_1_0" index="0" disallow="tram rail_urban rail rail_electric ship" speed="22.22" length="21.00" shape="1720.80,898.62 1718.23,877.79"/>
    </edge>
    <edge id=":1235793758_2" function="internal">
        <lane id=":1235793758_2_0" index="0" disallow="tram rail_urban rail rail_electric ship" speed="8.57" length="17.48" shape="1720.80,898.62 1720.74,893.12 1722.05,889.15 1724.73,886.69 1728.78,885.76"/>
    </edge>
    <edge id=":1235793758_3" function="internal">
        <lane id=":1235793758_3_0" index="0" disallow="tram rail_urban rail rail_electric ship" speed="3.65" length="4.67" shape="1720.80,898.62 1721.45,897.34 1722.20,896.85 1723.04,897.15 1723.98,898.25"/>
    </edge>
    <edge id=":1235793758_4" function="internal">
        <lane id=":1235793758_4_0" index="0" disallow="tram rail_urban rail rail_electric ship" speed="6.38" length="9.19" shape="1729.01,892.15 1726.55,892.61 1724.89,893.78 1724.03,895.66 1723.98,898.25"/>
    </edge>
    <edge id=":1235793758_5" function="internal">
        <lane id=":1235793758_5_0" index="0" disallow="tram rail_urban rail rail_electric ship" speed="27.78" length="15.09" shape="1729.01,892.15 1724.64,892.34 1721.66,892.64 1718.71,893.22 1714.47,894.27"/>
        <lane id=":1235793758_5_1" index="1" disallow="tram rail_urban rail rail_electric ship" speed="27.78" length="15.09" shape="1728.89,888.95 1724.32,889.15 1721.20,889.46 1718.12,890.07 1713.68,891.17"/>
    </edge>
    <edge id=":1235793758_7" function="internal">
        <lane id=":1235793758_7_0" index="0" disallow="tram rail_urban rail rail_electric ship" speed="9.06" length="5.56" shape="1728.89,888.95 1724.78,888.38 1723.60,887.61"/>
    </edge>
    <edge id=":1235793758_8" function="internal">
        <lane id=":1235793758_8_0" index="0" disallow="tram rail_urban rail rail_electric ship" speed="3.65" length="2.34" shape="1728.89,888.95 1727.66,888.20 1727.24,887.41"/>
    </edge>
    <edge id=":1235793758_18" function="internal">
        <lane id=":1235793758_18_0" index="0" disallow="tram rail_urban rail rail_electric ship" speed="9.06" length="11.66" shape="1723.60,887.61 1721.63,886.33 1719.45,882.80 1718.23,877.79"/>
    </edge>
    <edge id=":1235793758_19" function="internal">
        <lane id=":1235793758_19_0" index="0" disallow="tram rail_urban rail rail_electric ship" speed="3.65" length="2.34" shape="1727.24,887.41 1727.61,886.60 1728.78,885.76"/>
    </edge>
    <edge id=":1235793758_9" function="internal">
        <lane id=":1235793758_9_0" index="0" disallow="tram rail_urban rail rail_electric ship" speed="7.02" length="9.95" shape="1721.41,877.38 1722.12,879.74 1723.57,881.38 1725.75,882.32 1728.66,882.56"/>
    </edge>
    <edge id=":1235793758_10" function="internal">
        <lane id=":1235793758_10_0" index="0" disallow="tram rail_urban rail rail_electric ship" speed="22.22" length="21.02" shape="1721.41,877.38 1723.98,898.25"/>
    </edge>
    <edge id=":1235793758_11" function="internal">
        <lane id=":1235793758_11_0" index="0" disallow="tram rail_urban rail rail_electric ship" speed="9.26" length="17.54" shape="1721.41,877.38 1721.47,882.54 1720.21,886.56 1717.61,889.44 1713.68,891.17"/>
    </edge>
    <edge id=":1235793758_12" function="internal">
        <lane id=":1235793758_12_0" index="0" disallow="tram rail_urban rail rail_electric ship" speed="3.65" length="4.67" shape="1721.41,877.38 1720.77,878.67 1720.02,879.17 1719.18,878.88 1718.23,877.79"/>
    </edge>
    <edge id=":1235793758_13" function="internal">
        <lane id=":1235793758_13_0" index="0" disallow="tram rail_urban rail rail_electric ship" speed="7.27" length="10.47" shape="1712.11,884.97 1715.05,883.87 1717.05,882.31 1718.11,880.28 1718.23,877.79"/>
    </edge>
    <edge id=":1235793758_14" function="internal">
        <lane id=":1235793758_14_0" index="0" disallow="tram rail_urban rail rail_electric ship" speed="27.78" length="16.44" shape="1712.11,884.97 1716.94,883.77 1720.29,883.11 1723.69,882.78 1728.66,882.56"/>
        <lane id=":1235793758_14_1" index="1" disallow="tram rail_urban rail rail_electric ship" speed="27.78" length="16.44" shape="1712.90,888.07 1717.53,886.92 1720.75,886.28 1724.01,885.96 1728.78,885.76"/>
    </edge>
    <edge id=":1235793758_16" function="internal">
        <lane id=":1235793758_16_0" index="0" disallow="tram rail_urban rail rail_electric ship" speed="8.47" length="5.64" shape="1712.90,888.07 1717.18,887.80 1718.39,888.39"/>
    </edge>
    <edge id=":1235793758_17" function="internal">
        <lane id=":1235793758_17_0" index="0" disallow="tram rail_urban rail rail_electric ship" speed="3.65" length="2.34" shape="1712.90,888.07 1714.26,888.55 1714.84,889.23"/>
    </edge>
    <edge id=":1235793758_20" function="internal">
        <lane id=":1235793758_20_0" index="0" disallow="tram rail_urban rail rail_electric ship" speed="8.47" length="11.97" shape="1718.39,888.39 1720.46,889.40 1722.72,892.88 1723.98,898.25"/>
    </edge>
    <edge id=":1235793758_21" function="internal">
        <lane id=":1235793758_21_0" index="0" disallow="tram rail_urban rail rail_electric ship" speed="3.65" length="2.34" shape="1714.84,889.23 1714.65,890.10 1713.68,891.17"/>
    </edge>
    <edge id=":1240287126_0" function="internal">
        <lane id=":1240287126_0_0" index="0" disallow="tram rail_urban rail rail_electric ship" speed="6.81" length="9.42" shape="1007.25,839.57 1004.66,840.11 1002.80,841.29 1001.69,843.09 1001.33,845.52"/>
    </edge>
    <edge id=":1240287126_1" function="internal">
        <lane id=":1240287126_1_0" index="0" disallow="tram rail_urban rail rail_electric ship" speed="3.65" length="2.56" shape="1007.25,839.57 1005.99,838.86 1005.53,838.10 1005.62,837.89"/>
    </edge>
    <edge id=":1240287126_4" function="internal">
        <lane id=":1240287126_4_0" index="0" disallow="tram rail_urban rail rail_electric ship" speed="3.65" length="2.11" shape="1005.62,837.89 1005.87,837.27 1007.00,836.38"/>
    </edge>
    <edge id=":1240287126_2" function="internal">
        <lane id=":1240287126_2_0" index="0" disallow="tram rail_urban rail rail_electric ship" speed="6.36" length="9.04" shape="1001.26,831.11 1001.64,833.58 1002.72,835.28 1004.50,836.22 1007.00,836.38"/>
    </edge>
    <edge id=":1240287126_3" function="internal">
        <lane id=":1240287126_3_0" index="0" disallow="tram rail_urban rail rail_electric ship" speed="22.22" length="14.41" shape="1001.26,831.11 1001.33,845.52"/>
    </edge>
    <edge id=":1240617660_0" function="internal">
        <lane id=":1240617660_0_0" index="0" disallow="tram rail_urban rail rail_electric ship" speed="13.89" length="14.43" shape="3996.74,1352.72 3993.55,1338.65"/>
    </edge>
    <edge id=":1240617660_1" function="internal">
        <lane id=":1240617660_1_0" index="0" disallow="tram rail_urban rail rail_electric ship" speed="7.89" length="5.96" shape="3996.74,1352.72 3996.42,1348.74 3997.06,1346.88"/>
    </edge>
    <edge id=":1240617660_2" function="internal">
        <lane id=":1240617660_2_0" index="0" disallow="tram rail_urban rail rail_electric ship" speed="3.65" length="2.34" shape="3996.74,1352.72 3997.25,1351.37 3997.95,1350.80"/>
    </edge>
    <edge id=":1240617660_9" function="internal">
        <lane id=":1240617660_9_0" index="0" disallow="tram rail_urban rail rail_electric ship" speed="7.89" length="8.48" shape="3997.06,1346.88 3997.47,1345.69 3999.90,1343.57 4003.72,1342.38"/>
    </edge>
    <edge id=":1240617660_10" function="internal">
        <lane id=":1240617660_10_0" index="0" disallow="tram rail_urban rail rail_electric ship" speed="3.65" length="2.34" shape="3997.95,1350.80 3998.81,1351.02 3999.86,1352.01"/>
    </edge>
    <edge id=":1240617660_3" function="internal">
        <lane id=":1240617660_3_0" index="0" disallow="tram rail_urban rail rail_electric ship" speed="6.37" length="9.04" shape="4004.23,1345.54 4001.84,1346.28 4000.32,1347.61 3999.66,1349.52 3999.86,1352.01"/>
    </edge>
    <edge id=":1240617660_4" function="internal">
        <lane id=":1240617660_4_0" index="0" disallow="tram rail_urban rail rail_electric ship" speed="8.21" length="14.29" shape="4004.23,1345.54 4000.26,1345.64 3997.15,1344.52 3994.92,1342.19 3993.55,1338.65"/>
    </edge>
    <edge id=":1240617660_5" function="internal">
        <lane id=":1240617660_5_0" index="0" disallow="tram rail_urban rail rail_electric ship" speed="3.65" length="4.67" shape="4004.23,1345.54 4002.91,1344.94 4002.39,1344.21 4002.66,1343.36 4003.72,1342.38"/>
    </edge>
    <edge id=":1240617660_6" function="internal">
        <lane id=":1240617660_6_0" index="0" disallow="tram rail_urban rail rail_electric ship" speed="6.76" length="9.36" shape="3996.67,1337.95 3997.57,1340.24 3999.04,1341.74 4001.09,1342.45 4003.72,1342.38"/>
    </edge>
    <edge id=":1240617660_7" function="internal">
        <lane id=":1240617660_7_0" index="0" disallow="tram rail_urban rail rail_electric ship" speed="13.89" length="14.42" shape="3996.67,1337.95 3999.86,1352.01"/>
    </edge>
    <edge id=":1240617660_8" function="internal">
        <lane id=":1240617660_8_0" index="0" disallow="tram rail_urban rail rail_electric ship" speed="3.65" length="2.34" shape="3996.67,1337.95 3996.16,1339.29 3995.46,1339.86"/>
    </edge>
    <edge id=":1240617660_11" function="internal">
        <lane id=":1240617660_11_0" index="0" disallow="tram rail_urban rail rail_electric ship" speed="3.65" length="2.34" shape="3995.46,1339.86 3994.59,1339.64 3993.55,1338.65"/>
    </edge>
    <edge id=":1240617667_0" function="internal">
        <lane id=":1240617667_0_0" index="0" disallow="tram rail_urban rail rail_electric ship" speed="27.78" length="21.28" shape="2770.15,2253.47 2749.67,2258.85"/>
        <lane id=":1240617667_0_1" index="1" disallow="tram rail_urban rail rail_electric ship" speed="27.78" length="21.28" shape="2769.52,2250.33 2748.83,2255.76"/>
    </edge>
    <edge id=":1240617667_2" function="internal">
        <lane id=":1240617667_2_0" index="0" disallow="tram rail_urban rail rail_electric ship" speed="27.78" length="21.20" shape="2769.52,2250.33 2763.50,2251.56 2759.08,2252.29 2754.62,2252.48 2748.52,2252.10"/>
    </edge>
    <edge id=":1240617667_3" function="internal">
        <lane id=":1240617667_3_0" index="0" disallow="tram rail_urban rail rail_electric ship" speed="27.78" length="20.92" shape="2769.52,2250.33 2763.55,2251.06 2759.23,2250.70 2754.87,2249.79 2748.82,2248.91"/>
    </edge>
    <edge id=":1240617901_0" function="internal">
        <lane id=":1240617901_0_0" index="0" disallow="tram rail_urban rail rail_electric ship" speed="22.22" length="0.29" shape="4099.54,2221.64 4099.31,2221.82"/>
    </edge>
    <edge id=":1240617901_1" function="internal">
        <lane id=":1240617901_1_0" index="0" disallow="tram rail_urban rail rail_electric ship" speed="22.22" length="0.22" shape="4096.75,2220.40 4096.69,2220.18"/>
    </edge>
    <edge id=":1240618052_0" function="internal">
        <lane id=":1240618052_0_0" index="0" disallow="tram rail_urban rail rail_electric ship" speed="6.47" length="9.27" shape="4189.63,1888.61 4187.14,1888.57 4185.26,1889.39 4183.99,1891.07 4183.34,1893.61"/>
    </edge>
    <edge id=":1240618052_1" function="internal">
        <lane id=":1240618052_1_0" index="0" disallow="tram rail_urban rail rail_electric ship" speed="13.89" length="14.69" shape="4189.63,1888.61 4185.97,1888.09 4182.35,1887.74 4178.71,1887.56 4175.00,1887.55"/>
    </edge>
    <edge id=":1240618052_2" function="internal">
        <lane id=":1240618052_2_0" index="0" disallow="tram rail_urban rail rail_electric ship" speed="8.33" length="14.25" shape="4189.63,1888.61 4185.87,1887.45 4183.25,1885.42 4181.79,1882.53 4181.49,1878.78"/>
    </edge>
    <edge id=":1240618052_3" function="internal">
        <lane id=":1240618052_3_0" index="0" disallow="tram rail_urban rail rail_electric ship" speed="3.65" length="4.67" shape="4189.63,1888.61 4188.58,1887.63 4188.32,1886.77 4188.85,1886.05 4190.17,1885.46"/>
    </edge>
    <edge id=":1240618052_4" function="internal">
        <lane id=":1240618052_4_0" index="0" disallow="tram rail_urban rail rail_electric ship" speed="6.89" length="9.46" shape="4184.68,1878.99 4184.89,1881.45 4185.87,1883.35 4187.63,1884.69 4190.17,1885.46"/>
    </edge>
    <edge id=":1240618052_5" function="internal">
        <lane id=":1240618052_5_0" index="0" disallow="tram rail_urban rail rail_electric ship" speed="13.89" length="14.68" shape="4184.68,1878.99 4183.34,1893.61"/>
    </edge>
    <edge id=":1240618052_6" function="internal">
        <lane id=":1240618052_6_0" index="0" disallow="tram rail_urban rail rail_electric ship" speed="8.33" length="6.02" shape="4184.68,1878.99 4183.87,1882.67 4182.57,1884.51"/>
    </edge>
    <edge id=":1240618052_7" function="internal">
        <lane id=":1240618052_7_0" index="0" disallow="tram rail_urban rail rail_electric ship" speed="3.65" length="2.34" shape="4184.68,1878.99 4183.81,1880.14 4182.98,1880.48"/>
    </edge>
    <edge id=":1240618052_16" function="internal">
        <lane id=":1240618052_16_0" index="0" disallow="tram rail_urban rail rail_electric ship" speed="8.33" length="8.45" shape="4182.57,1884.51 4181.99,1885.33 4179.03,1886.96 4175.00,1887.55"/>
    </edge>
    <edge id=":1240618052_17" function="internal">
        <lane id=":1240618052_17_0" index="0" disallow="tram rail_urban rail rail_electric ship" speed="3.65" length="2.34" shape="4182.98,1880.48 4182.21,1880.03 4181.49,1878.78"/>
    </edge>
    <edge id=":1240618052_8" function="internal">
        <lane id=":1240618052_8_0" index="0" disallow="tram rail_urban rail rail_electric ship" speed="6.90" length="9.62" shape="4174.95,1884.35 4177.68,1883.96 4179.68,1882.90 4180.95,1881.18 4181.49,1878.78"/>
    </edge>
    <edge id=":1240618052_9" function="internal">
        <lane id=":1240618052_9_0" index="0" disallow="tram rail_urban rail rail_electric ship" speed="13.89" length="15.28" shape="4174.95,1884.35 4178.74,1884.37 4182.58,1884.56 4186.41,1884.92 4190.17,1885.46"/>
    </edge>
    <edge id=":1240618052_10" function="internal">
        <lane id=":1240618052_10_0" index="0" disallow="tram rail_urban rail rail_electric ship" speed="7.78" length="14.72" shape="4174.95,1884.35 4179.03,1884.87 4181.79,1886.58 4183.23,1889.49 4183.34,1893.61"/>
    </edge>
    <edge id=":1240618052_11" function="internal">
        <lane id=":1240618052_11_0" index="0" disallow="tram rail_urban rail rail_electric ship" speed="3.65" length="4.67" shape="4174.95,1884.35 4176.16,1885.13 4176.58,1885.92 4176.19,1886.73 4175.00,1887.55"/>
    </edge>
    <edge id=":1240618052_12" function="internal">
        <lane id=":1240618052_12_0" index="0" disallow="tram rail_urban rail rail_electric ship" speed="6.24" length="9.05" shape="4180.16,1893.24 4180.09,1890.71 4179.21,1888.92 4177.51,1887.87 4175.00,1887.55"/>
    </edge>
    <edge id=":1240618052_13" function="internal">
        <lane id=":1240618052_13_0" index="0" disallow="tram rail_urban rail rail_electric ship" speed="13.89" length="14.52" shape="4180.16,1893.24 4181.49,1878.78"/>
    </edge>
    <edge id=":1240618052_14" function="internal">
        <lane id=":1240618052_14_0" index="0" disallow="tram rail_urban rail rail_electric ship" speed="7.97" length="5.86" shape="4180.16,1893.24 4181.19,1889.27 4182.26,1887.88"/>
    </edge>
    <edge id=":1240618052_15" function="internal">
        <lane id=":1240618052_15_0" index="0" disallow="tram rail_urban rail rail_electric ship" speed="3.65" length="2.34" shape="4180.16,1893.24 4181.10,1892.14 4181.94,1891.83"/>
    </edge>
    <edge id=":1240618052_18" function="internal">
        <lane id=":1240618052_18_0" index="0" disallow="tram rail_urban rail rail_electric ship" speed="7.97" length="8.77" shape="4182.26,1887.88 4183.20,1886.65 4186.19,1885.38 4190.17,1885.46"/>
    </edge>
    <edge id=":1240618052_19" function="internal">
        <lane id=":1240618052_19_0" index="0" disallow="tram rail_urban rail rail_electric ship" speed="3.65" length="2.34" shape="4181.94,1891.83 4182.68,1892.32 4183.34,1893.61"/>
    </edge>
    <edge id=":1240618076_0" function="internal">
        <lane id=":1240618076_0_0" index="0" disallow="tram rail_urban rail rail_electric ship" speed="7.73" length="10.63" shape="4214.41,1557.42 4211.89,1558.27 4210.01,1559.82 4208.79,1562.06 4208.22,1564.98"/>
    </edge>
    <edge id=":1240618076_1" function="internal">
        <lane id=":1240618076_1_0" index="0" disallow="tram rail_urban rail rail_electric ship" speed="13.89" length="14.95" shape="4214.41,1557.42 4199.60,1559.43"/>
    </edge>
    <edge id=":1240618076_2" function="internal">
        <lane id=":1240618076_2_0" index="0" disallow="tram rail_urban rail rail_electric ship" speed="8.24" length="6.22" shape="4214.41,1557.42 4210.60,1557.52 4208.37,1556.63"/>
    </edge>
    <edge id=":1240618076_3" function="internal">
        <lane id=":1240618076_3_0" index="0" disallow="tram rail_urban rail rail_electric ship" speed="3.65" length="2.34" shape="4214.41,1557.42 4213.09,1556.84 4212.56,1556.13"/>
    </edge>
    <edge id=":1240618076_16" function="internal">
        <lane id=":1240618076_16_0" index="0" disallow="tram rail_urban rail rail_electric ship" speed="8.24" length="8.28" shape="4208.37,1556.63 4207.58,1556.32 4205.35,1553.81 4203.90,1549.99"/>
    </edge>
    <edge id=":1240618076_17" function="internal">
        <lane id=":1240618076_17_0" index="0" disallow="tram rail_urban rail rail_electric ship" speed="3.65" length="2.34" shape="4212.56,1556.13 4212.81,1555.27 4213.85,1554.27"/>
    </edge>
    <edge id=":1240618076_4" function="internal">
        <lane id=":1240618076_4_0" index="0" disallow="tram rail_urban rail rail_electric ship" speed="6.79" length="9.54" shape="4207.02,1549.26 4207.97,1551.82 4209.43,1553.50 4211.39,1554.32 4213.85,1554.27"/>
    </edge>
    <edge id=":1240618076_5" function="internal">
        <lane id=":1240618076_5_0" index="0" disallow="tram rail_urban rail rail_electric ship" speed="13.89" length="15.82" shape="4207.02,1549.26 4207.74,1553.07 4208.19,1557.08 4208.35,1561.11 4208.22,1564.98"/>
    </edge>
    <edge id=":1240618076_6" function="internal">
        <lane id=":1240618076_6_0" index="0" disallow="tram rail_urban rail rail_electric ship" speed="7.81" length="14.84" shape="4207.02,1549.26 4207.37,1553.36 4206.24,1556.42 4203.65,1558.45 4199.60,1559.43"/>
    </edge>
    <edge id=":1240618076_7" function="internal">
        <lane id=":1240618076_7_0" index="0" disallow="tram rail_urban rail rail_electric ship" speed="3.65" length="4.67" shape="4207.02,1549.26 4206.52,1550.61 4205.83,1551.19 4204.96,1550.98 4203.90,1549.99"/>
    </edge>
    <edge id=":1240618076_8" function="internal">
        <lane id=":1240618076_8_0" index="0" disallow="tram rail_urban rail rail_electric ship" speed="6.27" length="9.16" shape="4199.28,1556.25 4201.80,1555.64 4203.41,1554.39 4204.11,1552.51 4203.90,1549.99"/>
    </edge>
    <edge id=":1240618076_9" function="internal">
        <lane id=":1240618076_9_0" index="0" disallow="tram rail_urban rail rail_electric ship" speed="13.89" length="14.70" shape="4199.28,1556.25 4213.85,1554.27"/>
    </edge>
    <edge id=":1240618076_10" function="internal">
        <lane id=":1240618076_10_0" index="0" disallow="tram rail_urban rail rail_electric ship" speed="7.73" length="5.64" shape="4199.28,1556.25 4203.47,1556.44 4204.75,1557.12"/>
    </edge>
    <edge id=":1240618076_11" function="internal">
        <lane id=":1240618076_11_0" index="0" disallow="tram rail_urban rail rail_electric ship" speed="3.65" length="2.34" shape="4199.28,1556.25 4200.56,1556.93 4201.03,1557.69"/>
    </edge>
    <edge id=":1240618076_18" function="internal">
        <lane id=":1240618076_18_0" index="0" disallow="tram rail_urban rail rail_electric ship" speed="7.73" length="9.25" shape="4204.75,1557.12 4206.35,1557.96 4207.93,1560.81 4208.22,1564.98"/>
    </edge>
    <edge id=":1240618076_19" function="internal">
        <lane id=":1240618076_19_0" index="0" disallow="tram rail_urban rail rail_electric ship" speed="3.65" length="2.34" shape="4201.03,1557.69 4200.71,1558.52 4199.60,1559.43"/>
    </edge>
    <edge id=":1240618076_12" function="internal">
        <lane id=":1240618076_12_0" index="0" disallow="tram rail_urban rail rail_electric ship" speed="6.17" length="9.05" shape="4205.03,1564.75 4204.85,1562.21 4203.89,1560.47 4202.14,1559.55 4199.60,1559.43"/>
    </edge>
    <edge id=":1240618076_13" function="internal">
        <lane id=":1240618076_13_0" index="0" disallow="tram rail_urban rail rail_electric ship" speed="13.89" length="14.85" shape="4205.03,1564.75 4205.17,1561.02 4205.03,1557.33 4204.61,1553.65 4203.90,1549.99"/>
    </edge>
    <edge id=":1240618076_14" function="internal">
        <lane id=":1240618076_14_0" index="0" disallow="tram rail_urban rail rail_electric ship" speed="9.05" length="14.89" shape="4205.03,1564.75 4205.83,1560.71 4207.57,1557.62 4210.24,1555.47 4213.85,1554.27"/>
    </edge>
    <edge id=":1240618076_15" function="internal">
        <lane id=":1240618076_15_0" index="0" disallow="tram rail_urban rail rail_electric ship" speed="3.65" length="4.67" shape="4205.03,1564.75 4205.92,1563.61 4206.74,1563.27 4207.51,1563.73 4208.22,1564.98"/>
    </edge>
    <edge id=":1240618124_0" function="internal">
        <lane id=":1240618124_0_0" index="0" disallow="tram rail_urban rail rail_electric ship" speed="6.29" length="9.04" shape="4178.56,938.45 4177.65,936.10 4176.22,934.69 4174.27,934.22 4171.80,934.69"/>
    </edge>
    <edge id=":1240618124_1" function="internal">