<?xml version="1.0" encoding="UTF-8"?>
<!-- generated on 2019-04-28 14:47:35.905901 by $Id$
  options: -n map_edited.net.xml <doubleminus>route-file map.rou.xml -e 10 -l
-->
<routes xmlns:xsi="http://www.w3.org/2001/XMLSchema-instance" xsi:noNamespaceSchemaLocation="http://sumo.dlr.de/xsd/routes_file.xsd">
    <trip id="0" depart="0.00" from="-497943357#4" to="-298597678#3"/>
    <trip id="1" depart="1.00" from="158782348#5" to="520228064#1"/>
    <trip id="2" depart="2.00" from="286841509#0" to="243773566#0"/>
    <trip id="3" depart="3.00" from="162442431#0" to="298600773#1"/>
    <trip id="4" depart="4.00" from="-413128684" to="250710098#0"/>
    <trip id="5" depart="5.00" from="298597681#4" to="-298597680#3"/>
    <trip id="6" depart="6.00" from="-160253727" to="521131212#0"/>
    <trip id="7" depart="7.00" from="160253725#9" to="-152193611#2"/>
    <trip id="8" depart="8.00" from="313194185#3" to="306974310#1"/>
    <trip id="9" depart="9.00" from="504026227#2" to="-392464672#2"/>
</routes>
