<?xml version="1.0" encoding="UTF-8"?>

<configuration xmlns:xsi="http://www.w3.org/2001/XMLSchema-instance" xsi:noNamespaceSchemaLocation="http://sumo.dlr.de/xsd/sumoConfiguration.xsd">

    <input>
        <net-file value="map_edited.net.xml"/>
        <route-files value="map3.rou.xml"/>
        
         <!--<additional-files value="map.poly.xml"/>
       -->
        
    </input>

    <time>
        <begin value="0"/>
        <end value="100000"/>
    </time>


</configuration>
