<?xml version="1.0" encoding="UTF-8"?>

<!-- generated on 05/09/19 23:37:19 by Eclipse SUMO duarouter Version 1.2.0
<configuration xmlns:xsi="http://www.w3.org/2001/XMLSchema-instance" xsi:noNamespaceSchemaLocation="http://sumo.dlr.de/xsd/duarouterConfiguration.xsd">

    <input>
        <net-file value="map_edited.net.xml"/>
        <route-files value="trips.trips.xml"/>
    </input>

    <output>
        <output-file value="map3.rou.xml"/>
        <alternatives-output value="map3.rou.alt.xml"/>
    </output>

    <time>
        <begin value="0"/>
        <end value="30.0"/>
    </time>

    <report>
        <no-warnings value="true"/>
        <ignore-errors value="true"/>
        <no-step-log value="true"/>
    </report>

</configuration>
-->

<routes xmlns:xsi="http://www.w3.org/2001/XMLSchema-instance" xsi:noNamespaceSchemaLocation="http://sumo.dlr.de/xsd/routes_file.xsd">
    <vType id="truck"  maxSpeed="10.00" vClass="truck"/>

    <vehicle id="0" type="truck" depart="0.00">
        <route edges="-381410220#2 381410220#2 381410220#3 297896466#3 -538124005 227913949#0 298271086#1 41389174#0 41389174#2 41389174#5 41389174#7 229039642 304973679#0 304973679#1 304973679#2 304973679#4 304973679#5 227913938#0 227913938#7 -274022921#6 -274022921#4 -274022921#3 -274022921#1 -496332201#4 -279032146#4 -279032146#2 319713269#4 319713269#5 319713269#6 319713269#7 31794905#0 307097146 297896463#0 297896463#2 -158783758#8 -158783758#6 228022809#4 228022809#5 228022809#7 228022809#8 279365157#0 279365157#1 279365157#5 279365157#7 107538186#0 305502906#1 -509175417#5 -509175417#3 -158473540#10 -158473540#6 -158473540#4 -158473540#3 158854921#2"/>
    </vehicle>

    <vehicle id="1" type="truck" depart="0.00">
        <route edges="302240601#10 186483708#8 186483708#11 159315448#1 159315448#4 159315448#5 159315448#6 159315448#8 302240600#5 496339501#1 -644382105 -491781547#2 -491781547#1 -491781547#0"/>
    </vehicle>
    <vehicle id="2" type="truck" depart="0.00">
        <route edges="160526475#3 186109365#0 186109365#1 186109365#5 186109365#6 496261712#0 307244665#0 307244665#1 -298597678#5 -298597678#2 -298597678#1 -298597679#4 -298597679#2 -186109367#5 -186109367#2 -316267745#0 667223560#0 41389171 -496261701#2 -41389179 413128683 41389178 -160253727 -307096544#3 -307096544#1 -158895303#5 24452776 72871329#0 72871329#1 72871329#2 72871334#0 72871334#4 256288449#1"/>
    </vehicle>
    <vehicle id="3" type="truck" depart="0.00">
        <route edges="108071730#12 -108071730#14 -108071730#11 -108071730#10 306997519#1 306997517#0 306997517#3 -316267745#0 667223560#0 41389171 -496261701#2 -41389179 413128683 41389178 107538178#0 31794904#0 31794904#3 496332196#0 496332196#1 496332199#0 161024939 259871063#0 307097146 -286841509#4 286841509#3"/>
    </vehicle>
    <vehicle id="4" type="truck" depart="0.00">
        <route edges="-500031972#4 500031972#0 273445903#10 273445903#13 273445903#14 289139712#0 308732009#0 308732009#1 -277563646#19 -277563646#16 -277563646#10 -277563646#7 -277563646#6 496339492#0 496339490#1 496339490#2 496339490#3 158895309#0 158895309#2 306997492#0 306997492#2 107538207#0 107538207#2 496253685 365719024#0 319713269#10 319713269#1 319713269#2 319713269#3 319713269#4 319713269#5 72871326#0 259871042#0 -152086640#6 -152086640#4 -152086640#0 -497944541 -507869446#1 -313194758#2 31794913#0 537706053#0 537706053#1 537706053#3 111343192#0 111343192#10 536831318#1 298600774#3"/>
    </vehicle>
    <vehicle id="5" type="truck" depart="0.00">
        <route edges="-376661538#18 108037209#2 229039643 298271101#0 298271101#2 274022907#1 229039641#0 229039641#1 302240600#0 302240600#3 302240600#5 496339502#0 496339502#4 496339502#5 496339502#6 361108887#0 361108887#1 361108887#3 159796607#1 159796607#4 496257308#0 -506732273#0 -207905503#5 207905501#0 207905501#2 207905501#3 -207905507#1"/>
    </vehicle>
    <vehicle id="6" type="truck" depart="0.00">
        <route edges="-287304445#3 508640766 -158787065#14 -158787065#2 -158787065#1 -290626639#1 -290626639#0 158787075#1 158787075#3 150877866 396430848#0 396430847#2"/>
    </vehicle>
    <vehicle id="7" type="truck" depart="0.00">
        <route edges="107469533#7 -556296674#1 259871059#4 530815568#0 299281411#0 299281411#3 496339495#0 107538201#1 158473527#1 508142287#0 508142289#0"/>
    </vehicle>
    <vehicle id="8" type="truck" depart="0.00">
        <route edges="-158479867#11 -158479867#8 -158479867#6 -302065320#20 -302065320#19 -302065320#15 -302065320#13 -302065320#11 328547978#5 328547978#6 461383335#1 -298272432#15 -298272432#7 302241609#0 279365144#0 279365144#1 286841509#0 286841509#3 -307097146 -31794905#4 319713269#8 319713269#9 319713269#10 319713269#1 319713269#2 24430153#0 306997497#0 286094870#0 286094870#3 286094870#7 286094870#11 286094870#15 217430726 504514720#1 -376661538#21 -376661538#20 -308862241 -515811943#7"/>
    </vehicle>
    <vehicle id="9" type="truck" depart="0.00">
        <route edges="107469513#0 -107469513#1 364856384 107469499#2 -159473879#1 -159473879#0 496339478#1 496339478#3 496339478#4 107538165#3 507980152#1 496339480#0 -442079840#0 -250709918#6 -250709918#5 -250709918#3 -250709918#2 -250709918#1 -250709918#0 -307001558#3 -307001558#2 -307001558#1 -307001558#0 -407967748 -107538173#5 -107538173#2 -107538199#9 -107538199#8 -107538199#6 -107538199#3 107538192#0 107538192#1"/>
    </vehicle>
    <vehicle id="10" type="truck" depart="0.00">
        <route edges="41389166#9 -41389166#10 561954792#3 259871045#0 259871045#3 496493919#0 496493919#2 -521058769#1 -111343195#5 -111343195#2 -496493905#3 -496493905#2 279365155#5 228022809#4"/>
    </vehicle>
    <vehicle id="11" type="truck" depart="0.00">
        <route edges="228022799#14 496332192#2 313194185#0 313194185#4 313194185#9 313194185#12 313194185#17 313194185#20 496257370#0 405115648#1 313194390#0 675775398 496257372 -315702598#2 256288449#0 256288449#1 256288449#3 279365152#0 279365152#2 158782355#1 158782355#3 158782355#4 286217317#1 302242041 562016132#0 562016132#1 562016132#3 562016132#4 562016132#5 496714509#0 305502906#1 -509175417#5 -509175417#3 -158473540#10 497936774#0 440596584#0 496339486#0 158824780#3 158473575 508142289#0 508142289#3 508142289#5 561948117#0 444910434#0"/>
    </vehicle>
    <vehicle id="12" type="truck" depart="0.00">
        <route edges="-302240826#2 -302240826#0 -496493922#1 -496493922#0 250709918#0 250709918#1 250709918#2 250709918#3 250709918#5 250709918#6 442079840#0 -496339480#2 496339479#2 496339479#3 496339479#4 496339479#5 496339479#7 -159473890#2 -507980155#2 159473888#0 159473888#1 -442079838"/>
    </vehicle>
    <vehicle id="13" type="truck" depart="0.00">
        <route edges="-496249894#11 210456827#0 160526463#0 319100699#5 307244667#1 307244667#3 238985590#0 297579232 297579234 30438916#0 496339499#0 107584228#1 107584228#5 185583198#0 185583198#1 107581762#0"/>
    </vehicle>
    <vehicle id="14" type="truck" depart="0.00">
        <route edges="279365157#7 107538186#0 305502906#1 -509175417#5 -509175417#3 -509175417#2 -299496173#6 -299496173#3 158854915#0 158854915#1 158854915#3 -117916920#11"/>
    </vehicle>
    <vehicle id="15" type="truck" depart="0.00">
        <route edges="238985591#0 -160253702#6 -160253702#2 -160095002#0 -298597678#5 -298597678#2 -298597678#1 -298597679#4 -298597679#2 -186109367#5 -186109367#2 -316267745#0 667223560#0 41389171 -496261701#2 -41389179 413128683 41389178 -160253727 -307096544#3 -307096544#1 -158895303#5 24452776 72871329#0 286847288#0 228022792#0 228022792#3 315702598#0 313194340#0 305144851#0 298272432#0 298272432#9 298272447#0 328547977#1 328547977#3 328547978#5"/>
    </vehicle>
    <vehicle id="16" type="truck" depart="0.00">
        <route edges="307244667#1 -160253702#6 -160253702#2 -160095002#0 -298597678#5 -298597678#2 -298597678#1 -298597679#4 -298597679#2 298597681#0 298597681#4 405115644#0 405115644#3 279049706#0 279049706#7 38367661#0 38367661#5 -261996317#7 152193623 38367659#0 298272455#0 -298272455#1"/>
    </vehicle>
    <vehicle id="17" type="truck" depart="0.00">
        <route edges="520547189#14 31794910#6 31794910#10 31794910#16 31794910#21 305144851#0 520547190#0 302246939#0 -302241612 107538213#0 562016132#0 562016132#1 562016132#3 562016132#4 562016132#5 496714509#0 -162527282#6 -162527282#5 305502908#0 305502908#1 305502908#3 303889712#15 158854924 158824780#9"/>
    </vehicle>
    <vehicle id="18" type="truck" depart="0.00">
        <route edges="161605152#8 298272455#2 298272435#0 -298272432#15 38367672#0 38367672#5 362553482 302246939#0 250709916#0 250709916#1 301189808#0 297757252#0 496257361 142297097#0 259871068#0 298812493#0 298812493#1 496493914 38367679#0 38367679#2 108037210#0 158854903#0 546374573#0 161010072#3 504026230#0 -158854914#0 250709912#2 250709912#5 274022888#0 274022888#3 274022888#5 274022888#6 246322644 107538206 286847304#0 259871066#1 307154292#0"/>
    </vehicle>
    <vehicle id="19" type="truck" depart="0.00">
        <route edges="-119612644#6 -119612644#5 -119612644#4 -119612644#1 -119612644#0 -119612638#0 296679644#0 296679644#1 -282278505#7 -119612658#10 -119612658#8 -119612658#5 408307848 303614537#0 -565587256#6 -565587256#3 -565587256#2 565587255#0 496257352#0 496257352#1 496257352#3 -158630982#0 -277563646#7 -277563646#6 496339492#0 496339490#1 496339490#2 496339490#3 158895309#0 497984474#1 304972399#0 496493920#0 496493920#1 552358556#0 552358556#1"/>
    </vehicle>
    <vehicle id="20" type="truck" depart="0.00">
        <route edges="24452781#0 496253675#0 496253675#1 496253675#3 496253675#7 496253675#9 229039640#0 229039640#4 520547182#0"/>
    </vehicle>
    <vehicle id="21" type="truck" depart="0.00">
        <route edges="-442079842 107538165#0 107538165#1 107538165#3 507980152#1 496339480#0 -442079840#0 -250709918#6 -250709918#5 -250709918#3 -250709918#2 -250709918#1 -250709918#0 -307001558#3 -307001558#2 -307001558#1 -307001558#0 -407967748 -107538173#5 -107538173#2 -107538199#9 -107538199#8 -107538199#6 -107538199#3 107538186#0 305502906#1 -509175417#5 -509175417#3 -509175417#2 -299496173#6 -299496173#3 -287304445#16 -287304445#12 -287304445#6 -287304445#3 508640766 508640759#1 508640759#8 158146812#0 158146812#1 497930760#0 497930760#2 497930760#3 -376660036"/>
    </vehicle>
    <vehicle id="22" type="truck" depart="0.00">
        <route edges="-160526413#2 297580400#0 297580400#5 297580400#7 -161285614 297580403#5 238985591#0 -160253702#6 -160253702#2 -160095002#0 -298597678#5 -298597678#2 -298597678#1 -298597679#4 -298597679#2 -186109367#5 -186109367#2 -316267745#0 667223560#0 41389171 -496261701#2 -41389179 413128683 41389178 107538178#0 31794904#0 31794904#3 496332196#0 496332196#1 496332199#0 161024939 259871063#0 307097147#0 307097147#3 536826453 496253687#1 303889712#0 303889712#1 303889712#2 303889712#5 303889712#7 303889712#8 303889712#12 303889712#15 158854924 107538201#1 107538201#2 508142284#0 508142284#1 508142284#3 -561948128#7 -444910435#5 508142295#4 508142295#5 508142295#6 508142295#7"/>
    </vehicle>
    <vehicle id="23" type="truck" depart="0.00">
        <route edges="496339482#3 496339482#5 497984474#1 304972399#0 496493920#0 496493920#1 552358556#0"/>
    </vehicle>
    <vehicle id="24" type="truck" depart="0.00">
        <route edges="207905501#0 207905505#5 207905505#6 506732279#4 506732279#5 259871048#1 259871048#4 108037236 108037231#2 108037231#5 288255546#1 288255546#3 288255546#4 288255546#5 288255546#7 288255546#8 286090985#0 286090985#2 286090985#3 250709901#0 250709901#4 229039639#0 229039639#3 520547183#0 520547183#1 217430726 504514720#1 504514718#1 298271084 229039623#0 496339498#1 24420156#1 538124005 538124004#0 538124004#3 381410223#1 381410223#2 -381410223#2"/>
    </vehicle>
    <vehicle id="25" type="truck" depart="0.00">
        <route edges="-160095078#2 160095078#2 -160095097#3 228022804#5 160444011#0 160444011#5 405115649 392464673 392464671 -496261719#18 -496261719#6 -298597679#4 -298597679#2 108071693#0 108071693#2-AddedOnRampEdge 108071693#2 108071693#5 667223556#0 667223556#7 302239909#0 24452781#0 496253675#0 496253675#1 496253675#3 496253675#7 496253675#9 229039640#0 229039640#4 -308682326#3 108037255#0 274022865 -407707916#3 -274022861#8 -274022861#7 -274022857#10 -274022857#8 -274022857#6 -274022857#4 -286847299 286847276#0 108037265#1 108037265#2"/>
    </vehicle>
    <vehicle id="26" type="truck" depart="0.00">
        <route edges="497938177#3 497938177#4 497938177#5 299496173#0 299496173#4 509175417#0 509175417#3 509175417#4 107538167 305502905#1 107538199#0 107538199#4 107538199#7 107538199#9 107538173#0 107538173#3 407967748 307001558#0 307001558#1 307001558#2 307001558#3 250709918#0 250709918#1 250709918#2 250709918#3 250709918#5 250709918#6 442079840#0 442079840#1 108037211#0 108037211#3 496339501#1 496339501#10 496339501#13 -407707914 108037217#0 108037217#6 107584248#1 107584248#5 -513110290#2 -513110290#1 42451246#1"/>
    </vehicle>
    <vehicle id="27" type="truck" depart="0.00">
        <route edges="159014269#1 250709917#5 362553482 302246939#0 250709916#0 158995063#1 38367673#2 38367673#4 279365155#3 279365155#4 279365155#5 158783758#2 158783758#7 -297896463#2 -297896463#1 -307097146 -259871063#1 -161024939 -496332199#1 -496332196#1 -496332196#0 -31794904#6 -31794904#2 107538178#1 286852568 -304476025#12 -304476025#6 -304476025#3 -227913938#10 -227913938#6 -304973679#12 -304973679#4 -304973679#3 -304973679#1 -304973679#0 -229039642 -41389174#7 -41389174#6 -41389174#4 41389174#2"/>
    </vehicle>
    <vehicle id="28" type="truck" depart="0.00">
        <route edges="-316267745#0 667223560#0 41389171 -496261701#2 -41389179 413128683 41389178 107538178#0 107538178#1 160253722#0 160253722#4 286094874#0 286094877 286847289#0 24452783#0 161010065#0 161010072#1 161010072#3 504026230#0 -158854914#0 250709912#2 250709912#5 274022888#0"/>
    </vehicle>
    <vehicle id="29" type="truck" depart="0.00">
        <route edges="284190710#4 -284190710#4 -284190710#3 284190707#11 284190707#13 -290626639#0 150877876#3 158787073 158419860#0-AddedOnRampEdge 158419860#0 158473581#1 508142295#7 508142282#0 508142282#1 496257353#0 496257353#3 496257337#0 496257337#5 496257337#8 496257337#10 119066330#0 496257311#0 496350358#0 296677582#2 207905507#0 207905507#1 207905507#2"/>
    </vehicle>

     <vehicle id="30" type="truck" depart="0.00">
        <route edges="-381410220#2 381410220#2 381410220#3 297896466#3 -538124005 227913949#0 298271086#1 41389174#0 41389174#2 41389174#5 41389174#7 229039642 304973679#0 304973679#1 304973679#2 304973679#4 304973679#5 227913938#0 227913938#7 -274022921#6 -274022921#4 -274022921#3 -274022921#1 -496332201#4 -279032146#4 -279032146#2 319713269#4 319713269#5 319713269#6 319713269#7 31794905#0 307097146 297896463#0 297896463#2 -158783758#8 -158783758#6 228022809#4 228022809#5 228022809#7 228022809#8 279365157#0 279365157#1 279365157#5 279365157#7 107538186#0 305502906#1 -509175417#5 -509175417#3 -158473540#10 -158473540#6 -158473540#4 -158473540#3 158854921#2"/>
    </vehicle>
</routes>
