<?xml version="1.0" encoding="UTF-8"?>

<!-- generated on 05/09/19 23:37:19 by Eclipse SUMO duarouter Version 1.2.0
<configuration xmlns:xsi="http://www.w3.org/2001/XMLSchema-instance" xsi:noNamespaceSchemaLocation="http://sumo.dlr.de/xsd/duarouterConfiguration.xsd">
    <input>
        <net-file value="map_edited.net.xml"/>
        <route-files value="trips.trips.xml"/>
    </input>
    <output>
        <output-file value="map3.rou.xml"/>
        <alternatives-output value="map3.rou.alt.xml"/>
    </output>
    <time>
        <begin value="0"/>
        <end value="30.0"/>
    </time>
    <report>
        <no-warnings value="true"/>
        <ignore-errors value="true"/>
        <no-step-log value="true"/>
    </report>
</configuration>
-->

<routes xmlns:xsi="http://www.w3.org/2001/XMLSchema-instance">
    <vType id="truck"  maxSpeed="5.00" vClass="truck"/>

  

    <vehicle id="1" type="truck" depart="0.00">
         <route edges="-381410220#2 381410220#2 381410220#3 297896466#3 -538124005 227913949#0 298271086#1 41389174#0 41389174#2 41389174#5 41389174#7 229039642 304973679#0 304973679#1 304973679#2 304973679#4 304973679#5 227913938#0 227913938#7 -274022921#6 -274022921#4 -274022921#3 -274022921#1 -496332201#4 -279032146#4 -279032146#2 319713269#4 319713269#5 319713269#6 319713269#7 31794905#0 307097146 297896463#0 297896463#2 -158783758#8 -158783758#6 228022809#4 228022809#5 228022809#7 228022809#8 279365157#0 279365157#1 279365157#5 279365157#7 107538186#0 305502906#1 -509175417#5 -509175417#3 -158473540#10 -158473540#6 -158473540#4 -158473540#3 158854921#2 299496173#0 299496173#4 509175417#0 509175417#3 509175417#4 107538167 305502905#1 107538192#0 107538192#1 642810484#0 642810484#3 279365155#0 279365155#1 279365155#2 279365155#3 279365155#4 279365155#5 158783758#2 158783758#7 -297896463#2 -297896463#1 -297757247#3 -297757247#2 -152086640#6 -152086640#4 -152086640#0 -497944541 111343191 -497944542 -111343189#1 -253751064#8 -405115644#5 -405115644#2 298600770#0 298600770#4 -298597680#5 -298597680#4 -298597680#3 -392464672#4 -392464671 210406797 319100699#2 497194559#1 -210406803#7 210406803#1"/>
    </vehicle>
    <vehicle id="2" type="truck" depart="0.00">
       <route edges="-500031972#4 500031972#0 273445903#10 273445903#13 273445903#14 289139712#0 308732009#0 308732009#1 -277563646#19 -277563646#16 -277563646#10 -277563646#7 -277563646#6 496339492#0 496339490#1 496339490#2 496339490#3 158895309#0 158895309#2 306997492#0 306997492#2 107538207#0 107538207#2 496253685 365719024#0 319713269#10 319713269#1 319713269#2 319713269#3 319713269#4 319713269#5 72871326#0 259871042#0 -152086640#6 -152086640#4 -152086640#0 -497944541 -507869446#1 -313194758#2 31794913#0 537706053#0 537706053#1 537706053#3 111343192#0 111343192#10 536831318#1 298600774#3"/>
    </vehicle>
    <vehicle id="3" type="truck" depart="0.00">

        <route edges="-160526413#2 297580400#0 297580400#5 297580400#7 -161285614 297580403#5 238985591#0 -160253702#6 -160253702#2 -160095002#0 -298597678#5 -298597678#2 -298597678#1 -298597679#4 -298597679#2 -186109367#5 -186109367#2 -316267745#0 667223560#0 41389171 -496261701#2 -41389179 413128683 41389178 107538178#0 31794904#0 31794904#3 496332196#0 496332196#1 496332199#0 161024939 259871063#0 307097147#0 307097147#3 536826453 496253687#1 303889712#0 303889712#1 303889712#2 303889712#5 303889712#7 303889712#8 303889712#12 303889712#15 158854924 107538201#1 107538201#2 508142284#0 508142284#1 508142284#3 -561948128#7 -444910435#5 508142295#4 508142295#5 508142295#6 508142295#7 508142282#0 508142282#1 496257352#0 496257352#1 496257352#3 -158630982#0 -277563646#7 -277563646#6 496339492#0 496339490#1 496339490#2 496339490#3 158895309#0 158895309#2 306997492#0 306997492#2 107538207#0 107538207#2 496253685 365719024#0 319713269#10 319713269#1 319713269#2 24430153#0 306997497#0 286094870#0 286094870#3 286094870#7 286094870#11 286094870#15 217430726 504514720#1 504514718#1 298271084  229039623#0 298271078#0 229039624 298271081#0 298271081#1 504514722#2 504514722#3 504514722#4 -286094870#18 -286094870#14 -286094870#10 -286094870#6 -286094870#2 -306997497#2 -24430153#1 319713269#3 319713269#4 319713269#5 319713269#6 319713269#7 31794905#0 307097146 -286841509#4 -286841509#2 -279365144#3 -279365144#0 -286841510#1 298272432#0 298272432#9 -298272435#5 -362554759#16 -362554759#12 -312614607#1 -108208745#3 -108208745#1 -108208745#0 -108208762#11 -108208762#6 -152801180#9 -152801180#8 -152801180#7"/>

    </vehicle>
  
</routes>