<?xml version="1.0" encoding="UTF-8"?>
<!-- generated on 2019-03-16 22:15:48.043047 by $Id$
  options: -n map.net.xml -r map.rou.xml -e 50 ¡Vl
-->
<routes xmlns:xsi="http://www.w3.org/2001/XMLSchema-instance" xsi:noNamespaceSchemaLocation="http://sumo.dlr.de/xsd/routes_file.xsd">
    <trip id="0" depart="0.00" from="319100699#0" to="228022799#4"/>
    <trip id="1" depart="1.00" from="496249900#0" to="497901217#1"/>
    <trip id="2" depart="2.00" from="158782359#4" to="303889712#6"/>
    <trip id="3" depart="3.00" from="228022799#1" to="536831318#4"/>
    <trip id="4" depart="4.00" from="72871334#3" to="-303889712#3"/>
    <trip id="5" depart="5.00" from="-256288449#1" to="552358549#1"/>
    <trip id="6" depart="6.00" from="319713269#1" to="496261717#1"/>
    <trip id="7" depart="7.00" from="496249900#6" to="392464672#4"/>
    <trip id="8" depart="8.00" from="-160095082#0" to="521058770#0"/>
    <trip id="9" depart="9.00" from="108071734#1" to="520547189#4"/>
    <trip id="10" depart="10.00" from="-159315422#8" to="158782348#6"/>
    <trip id="11" depart="11.00" from="298597680#3" to="-160095078#2"/>
    <trip id="12" depart="12.00" from="152193604#4" to="-496261723#3"/>
    <trip id="13" depart="13.00" from="203481580#0" to="-108071722#8"/>
    <trip id="14" depart="14.00" from="31794904#0" to="504026227#9"/>
    <trip id="15" depart="15.00" from="161156220#9" to="162442413#1"/>
    <trip id="16" depart="16.00" from="-260615169#3" to="41963902#8"/>
    <trip id="17" depart="17.00" from="609909362#1" to="31794903#1"/>
    <trip id="18" depart="18.00" from="-298592948#1" to="250709911"/>
    <trip id="19" depart="19.00" from="496257368#4" to="-496332194#13"/>
    <trip id="20" depart="20.00" from="108071730#2" to="158656447#1"/>
    <trip id="21" depart="21.00" from="159315422#7" to="161409498#2"/>
    <trip id="22" depart="22.00" from="160321077#2" to="496261723#6"/>
    <trip id="23" depart="23.00" from="158473584#0" to="-286361759#0"/>
    <trip id="24" depart="24.00" from="-158995063#3" to="158473584#1"/>
    <trip id="25" depart="25.00" from="-158782348#6" to="259871069#1"/>
    <trip id="26" depart="26.00" from="301189807#5" to="160253725#7"/>
    <trip id="27" depart="27.00" from="531438445#0" to="298592948#4"/>
    <trip id="28" depart="28.00" from="-186109367#5" to="161409498#9"/>
    <trip id="29" depart="29.00" from="228022792#5" to="496332198#3"/>
    <trip id="30" depart="30.00" from="158895303#1" to="250710099#3"/>
    <trip id="31" depart="31.00" from="261996322#0" to="313194185#15"/>
    <trip id="32" depart="32.00" from="108071717#7" to="-203481580#5"/>
    <trip id="33" depart="33.00" from="-160253702#1" to="-561994814#1"/>
    <trip id="34" depart="34.00" from="302241609#1" to="-160253722#1"/>
    <trip id="35" depart="35.00" from="520547189#7" to="-274022921#5"/>
    <trip id="36" depart="36.00" from="609909362#2" to="482007539#1"/>
    <trip id="37" depart="37.00" from="71285598#2" to="307097147#2"/>
    <trip id="38" depart="38.00" from="-186109367#2" to="531438444#2"/>
    <trip id="39" depart="39.00" from="-496332199#1" to="81357763#4"/>
    <trip id="40" depart="40.00" from="72871329#0" to="203481580#6"/>
    <trip id="41" depart="41.00" from="-496332196#1" to="-496332197#0"/>
    <trip id="42" depart="42.00" from="158995063#2" to="-152193617#3"/>
    <trip id="43" depart="43.00" from="298597681#6" to="-160095002#10"/>
    <trip id="44" depart="44.00" from="260615170#1" to="-496253677#5"/>
    <trip id="45" depart="45.00" from="-161010065#2" to="-260615169#3"/>
    <trip id="46" depart="46.00" from="-108071730#1" to="496332194#17"/>
    <trip id="47" depart="47.00" from="-286094874#2" to="-497944542"/>
    <trip id="48" depart="48.00" from="186109364#6" to="-41389169#3"/>
    <trip id="49" depart="49.00" from="315886535#1" to="-496261719#5"/>
</routes>
