<?xml version="1.0" encoding="UTF-8"?>

<!-- generated on 03/15/19 15:09:46 by Eclipse SUMO duarouter Version 1.1.0
<configuration xmlns:xsi="http://www.w3.org/2001/XMLSchema-instance" xsi:noNamespaceSchemaLocation="http://sumo.dlr.de/xsd/duarouterConfiguration.xsd">

    <input>
        <net-file value="map.net.xml"/>
        <route-files value="mapFLOW.flow.xml"/>
    </input>

    <output>
        <output-file value="map_from_flow.rou.xml"/>
        <alternatives-output value="map_from_flow.rou.alt.xml"/>
    </output>

</configuration>
-->

<routes xmlns:xsi="http://www.w3.org/2001/XMLSchema-instance" xsi:noNamespaceSchemaLocation="http://sumo.dlr.de/xsd/routes_file.xsd">
    <vehicle id="flow0.0" depart="0.00">
        <route edges="307244665#2 307244665#3 307244665#4 -298597678#5 -298597678#4 -298597678#3 -298597678#2 -298597678#1 -298597678#0 -298597679#4 -298597679#3 -298597679#2 -298597679#1 -298597679#0 -413131917 -186109367#5 -186109367#4 -186109367#3 -186109367#2 -186109367#1 -186109367#0 -316267745#1 -316267745#0 667223560#0 667223560#1 41389171 -496261701#2 -496261701#1 -496261701#0 -41389179 413128683 413128684 41389178 160253728 107538178#0 31794904#0 31794904#1 31794904#2 31794904#3 31794904#4 31794904#5 31794904#6 496332196#0 496332196#1"/>
    </vehicle>
</routes>
