<?xml version="1.0" encoding="UTF-8"?>

<!-- generated on 03/12/19 20:35:30 by Eclipse SUMO duarouter Version 1.1.0
<configuration xmlns:xsi="http://www.w3.org/2001/XMLSchema-instance" xsi:noNamespaceSchemaLocation="http://sumo.dlr.de/xsd/duarouterConfiguration.xsd">

    <input>
        <net-file value="map.net.xml"/>
        <route-files value="trips.trips.xml"/>
    </input>

    <output>
        <output-file value="map.rou.xml"/>
        <alternatives-output value="map.rou.alt.xml"/>
    </output>

    <time>
        <begin value="0"/>
        <end value="100.0"/>
    </time>

    <report>
        <no-warnings value="true"/>
        <ignore-errors value="true"/>
        <no-step-log value="true"/>
    </report>

</configuration>
-->

<routes xmlns:xsi="http://www.w3.org/2001/XMLSchema-instance" xsi:noNamespaceSchemaLocation="http://sumo.dlr.de/xsd/routes_file.xsd">
    <vehicle id="0" depart="0.00">
        <route edges="307244665#2 307244665#3 307244665#4 -298597678#5 -298597678#4 -298597678#3 -298597678#2 -298597678#1 -298597678#0 -298597679#4 -298597679#3 -298597679#2 -298597679#1 -298597679#0 -413131917 -186109367#5 -186109367#4 -186109367#3 -186109367#2 -186109367#1 -186109367#0 -316267745#1 -316267745#0 667223560#0 667223560#1 41389171 -496261701#2 -496261701#1 -496261701#0 -41389179 413128683 413128684 41389178 160253728 107538178#0 31794904#0 31794904#1 31794904#2 31794904#3 31794904#4 31794904#5 31794904#6 496332196#0 496332196#1"/>
    </vehicle>
    <vehicle id="1" depart="1.00">
        <route edges="531438440#0 -531438440#0 531438444#3 531438444#4 531438444#5 531438444#6 531438449#2 531438449#3 319100698#0 319100698#1 319100698#2 319100698#3 319100698#4 319100698#5 42449638#0 228022804#5 313194185#0 313194185#1 313194185#2 313194185#3 313194185#4 313194185#5 313194185#6 313194185#7 313194185#8 313194185#9 313194185#10 313194185#11 313194185#12 313194185#13 313194185#14 313194185#15 313194185#16 313194185#17 313194185#18 313194185#19 313194185#20 313194185#21 313194185#22 313194185#23 313194185#24 313194185#25 313194185#26 313194185#27 496257370#0 496257370#1 496257370#2 38367661#0 38367661#1"/>
    </vehicle>

</routes>
