<flows> 
    <flow id="flow0" from="307244665#2" to="496332196#1" begin="0" end="1000" number="1" /> 
</flows> 