<?xml version="1.0" encoding="UTF-8"?>

<!-- generated on 03/13/19 14:19:33 by Eclipse SUMO netconvert Version 1.1.0
<configuration xmlns:xsi="http://www.w3.org/2001/XMLSchema-instance" xsi:noNamespaceSchemaLocation="http://sumo.dlr.de/xsd/netconvertConfiguration.xsd">

    <input>
        <sumo-net-file value="map.net.xml"/>
    </input>

    <output>
        <plain-output-prefix value="plain"/>
    </output>

    <projection>
        <proj.plain-geo value="true"/>
    </projection>

    <processing>
        <geometry.max-grade.fix value="false"/>
        <offset.disable-normalization value="true"/>
        <lefthand value="false"/>
    </processing>

    <junctions>
        <no-turnarounds value="true"/>
        <junctions.corner-detail value="5"/>
        <junctions.limit-turn-speed value="5.5"/>
        <rectangular-lane-cut value="false"/>
    </junctions>

    <pedestrian>
        <walkingareas value="false"/>
    </pedestrian>

</configuration>
-->

<connections version="1.1" xmlns:xsi="http://www.w3.org/2001/XMLSchema-instance" xsi:noNamespaceSchemaLocation="http://sumo.dlr.de/xsd/connections_file.xsd">
    <connection from="-108071651#0" to="31794910#0" fromLane="0" toLane="0"/>
    <connection from="-108071651#0" to="108071651#0" fromLane="0" toLane="0"/>

    <connection from="-108071651#1" to="-108071651#0" fromLane="0" toLane="0"/>
    <connection from="-108071651#1" to="108071651#1" fromLane="0" toLane="0"/>

    <connection from="-108071651#2" to="-108071651#1" fromLane="0" toLane="0"/>
    <connection from="-108071651#2" to="313194185#20" fromLane="0" toLane="1"/>
    <connection from="-108071651#2" to="108071651#2" fromLane="0" toLane="0"/>

    <connection from="-108071685" to="228022819#0" fromLane="0" toLane="0"/>
    <connection from="-108071685" to="228022819#0" fromLane="1" toLane="1"/>
    <connection from="-108071685" to="-444021565#2" fromLane="1" toLane="0"/>
    <connection from="-108071685" to="108071685" fromLane="1" toLane="1"/>

    <connection from="-108071686#0" to="186109364#1" fromLane="0" toLane="0"/>
    <connection from="-108071686#0" to="108071686#0" fromLane="0" toLane="0"/>

    <connection from="-108071686#1" to="398439702" fromLane="0" toLane="0"/>
    <connection from="-108071686#1" to="-108071686#0" fromLane="0" toLane="0"/>
    <connection from="-108071686#1" to="108071686#1" fromLane="0" toLane="0"/>

    <connection from="-108071705" to="-531438437" fromLane="0" toLane="0"/>
    <connection from="-108071705" to="319100698#2" fromLane="0" toLane="1"/>
    <connection from="-108071705" to="108071705" fromLane="0" toLane="0"/>

    <connection from="-108071721#0" to="405115649" fromLane="0" toLane="0"/>
    <connection from="-108071721#0" to="-611774239" fromLane="0" toLane="0"/>
    <connection from="-108071721#0" to="108071721#0" fromLane="0" toLane="0"/>

    <connection from="-108071721#1" to="-108071721#0" fromLane="0" toLane="0"/>
    <connection from="-108071721#1" to="-160095000#13" fromLane="0" toLane="0"/>
    <connection from="-108071721#1" to="108071721#1" fromLane="0" toLane="0"/>

    <connection from="-108071722#0" to="313194185#9" fromLane="0" toLane="1"/>
    <connection from="-108071722#0" to="108071722#0" fromLane="0" toLane="0"/>

    <connection from="-108071722#1" to="496257368#20" fromLane="0" toLane="0"/>
    <connection from="-108071722#1" to="-108071722#0" fromLane="0" toLane="0"/>
    <connection from="-108071722#1" to="108071722#1" fromLane="0" toLane="0"/>

    <connection from="-108071722#10" to="-558677810#1" fromLane="0" toLane="0"/>
    <connection from="-108071722#10" to="-108071722#9" fromLane="0" toLane="0"/>
    <connection from="-108071722#10" to="108071722#10" fromLane="0" toLane="0"/>

    <connection from="-108071722#11" to="-108071722#10" fromLane="0" toLane="0"/>
    <connection from="-108071722#11" to="160095091#0" fromLane="0" toLane="0"/>
    <connection from="-108071722#11" to="108071722#11" fromLane="0" toLane="0"/>

    <connection from="-108071722#12" to="-558677813" fromLane="0" toLane="0"/>
    <connection from="-108071722#12" to="-108071722#11" fromLane="0" toLane="0"/>
    <connection from="-108071722#12" to="108071722#12" fromLane="0" toLane="0"/>

    <connection from="-108071722#2" to="-108071722#1" fromLane="0" toLane="0"/>
    <connection from="-108071722#2" to="108071722#2" fromLane="0" toLane="0"/>

    <connection from="-108071722#3" to="-160253716#3" fromLane="0" toLane="0"/>
    <connection from="-108071722#3" to="-108071722#2" fromLane="0" toLane="0"/>
    <connection from="-108071722#3" to="108071722#3" fromLane="0" toLane="0"/>

    <connection from="-108071722#4" to="-108071722#3" fromLane="0" toLane="0"/>
    <connection from="-108071722#4" to="160312837#0" fromLane="0" toLane="0"/>
    <connection from="-108071722#4" to="108071722#4" fromLane="0" toLane="0"/>

    <connection from="-108071722#5" to="-314693913#2" fromLane="0" toLane="0"/>
    <connection from="-108071722#5" to="-108071722#4" fromLane="0" toLane="0"/>
    <connection from="-108071722#5" to="314693920#0" fromLane="0" toLane="0"/>
    <connection from="-108071722#5" to="108071722#5" fromLane="0" toLane="0"/>

    <connection from="-108071722#6" to="-558677812" fromLane="0" toLane="0"/>
    <connection from="-108071722#6" to="-108071722#5" fromLane="0" toLane="0"/>
    <connection from="-108071722#6" to="108071722#6" fromLane="0" toLane="0"/>

    <connection from="-108071722#7" to="-108071722#6" fromLane="0" toLane="0"/>
    <connection from="-108071722#7" to="-160253686#1" fromLane="0" toLane="0"/>
    <connection from="-108071722#7" to="108071722#7" fromLane="0" toLane="0"/>

    <connection from="-108071722#8" to="-558677809" fromLane="0" toLane="0"/>
    <connection from="-108071722#8" to="-108071722#7" fromLane="0" toLane="0"/>
    <connection from="-108071722#8" to="108071722#8" fromLane="0" toLane="0"/>

    <connection from="-108071722#9" to="-108071722#8" fromLane="0" toLane="0"/>
    <connection from="-108071722#9" to="160253698#0" fromLane="0" toLane="0"/>
    <connection from="-108071722#9" to="108071722#9" fromLane="0" toLane="0"/>

    <connection from="-108071723" to="-496332194#4" fromLane="0" toLane="0"/>
    <connection from="-108071723" to="496332194#5" fromLane="0" toLane="0"/>
    <connection from="-108071723" to="108071723" fromLane="0" toLane="0"/>

    <connection from="-108071730#0" to="261996311#0" fromLane="0" toLane="0"/>
    <connection from="-108071730#0" to="306997519#0" fromLane="0" toLane="0"/>
    <connection from="-108071730#0" to="108071730#0" fromLane="0" toLane="0"/>

    <connection from="-108071730#1" to="-108071730#0" fromLane="0" toLane="0"/>
    <connection from="-108071730#1" to="108071730#1" fromLane="0" toLane="0"/>

    <connection from="-108071730#10" to="-108071730#9" fromLane="0" toLane="0"/>
    <connection from="-108071730#10" to="-160095067#1" fromLane="0" toLane="0"/>
    <connection from="-108071730#10" to="108071730#10" fromLane="0" toLane="0"/>

    <connection from="-108071730#11" to="-160095101#2" fromLane="0" toLane="0"/>
    <connection from="-108071730#11" to="-108071730#10" fromLane="0" toLane="0"/>
    <connection from="-108071730#11" to="108071730#11" fromLane="0" toLane="0"/>

    <connection from="-108071730#12" to="161170741#0" fromLane="0" toLane="0"/>
    <connection from="-108071730#12" to="-108071730#11" fromLane="0" toLane="0"/>
    <connection from="-108071730#12" to="108071730#12" fromLane="0" toLane="0"/>

    <connection from="-108071730#13" to="-161170738#2" fromLane="0" toLane="0"/>
    <connection from="-108071730#13" to="-108071730#12" fromLane="0" toLane="0"/>
    <connection from="-108071730#13" to="108071730#13" fromLane="0" toLane="0"/>

    <connection from="-108071730#14" to="-496261725#1" fromLane="0" toLane="0"/>
    <connection from="-108071730#14" to="-108071730#13" fromLane="0" toLane="0"/>
    <connection from="-108071730#14" to="108071730#14" fromLane="0" toLane="0"/>

    <connection from="-108071730#2" to="-108071730#1" fromLane="0" toLane="0"/>
    <connection from="-108071730#2" to="160095059#0" fromLane="0" toLane="0"/>
    <connection from="-108071730#2" to="108071730#2" fromLane="0" toLane="0"/>

    <connection from="-108071730#3" to="307733608#0" fromLane="0" toLane="0"/>
    <connection from="-108071730#3" to="-108071730#2" fromLane="0" toLane="0"/>
    <connection from="-108071730#3" to="-160095045#1" fromLane="0" toLane="0"/>
    <connection from="-108071730#3" to="108071730#3" fromLane="0" toLane="0"/>

    <connection from="-108071730#4" to="307733606#0" fromLane="0" toLane="0"/>
    <connection from="-108071730#4" to="-108071730#3" fromLane="0" toLane="0"/>
    <connection from="-108071730#4" to="108071730#4" fromLane="0" toLane="0"/>

    <connection from="-108071730#5" to="-108071730#4" fromLane="0" toLane="0"/>
    <connection from="-108071730#5" to="160095075#0" fromLane="0" toLane="0"/>
    <connection from="-108071730#5" to="108071730#5" fromLane="0" toLane="0"/>

    <connection from="-108071730#6" to="-108071730#5" fromLane="0" toLane="0"/>
    <connection from="-108071730#6" to="108071730#6" fromLane="0" toLane="0"/>

    <connection from="-108071730#7" to="-108071730#6" fromLane="0" toLane="0"/>
    <connection from="-108071730#7" to="108071730#7" fromLane="0" toLane="0"/>

    <connection from="-108071730#8" to="-108071730#7" fromLane="0" toLane="0"/>
    <connection from="-108071730#8" to="-160095060#3" fromLane="0" toLane="0"/>
    <connection from="-108071730#8" to="108071730#8" fromLane="0" toLane="0"/>

    <connection from="-108071730#9" to="-307733612" fromLane="0" toLane="0"/>
    <connection from="-108071730#9" to="-108071730#8" fromLane="0" toLane="0"/>
    <connection from="-108071730#9" to="160095069#0" fromLane="0" toLane="0"/>
    <connection from="-108071730#9" to="108071730#9" fromLane="0" toLane="0"/>

    <connection from="-108071733#0" to="-496714508#2" fromLane="0" toLane="0"/>
    <connection from="-108071733#0" to="298600773#0" fromLane="0" toLane="0"/>
    <connection from="-108071733#0" to="160253719#0" fromLane="0" toLane="0"/>
    <connection from="-108071733#0" to="108071733#0" fromLane="0" toLane="0"/>

    <connection from="-108071733#1" to="-108071733#0" fromLane="0" toLane="0"/>
    <connection from="-108071733#1" to="160095027#0" fromLane="0" toLane="0"/>
    <connection from="-108071733#1" to="108071733#1" fromLane="0" toLane="0"/>

    <connection from="-108071733#2" to="314693930#0" fromLane="0" toLane="0"/>
    <connection from="-108071733#2" to="-108071733#1" fromLane="0" toLane="0"/>
    <connection from="-108071733#2" to="108071733#2" fromLane="0" toLane="0"/>

    <connection from="-108071733#3" to="-108071733#2" fromLane="0" toLane="0"/>
    <connection from="-108071733#3" to="-160253701#3" fromLane="0" toLane="0"/>
    <connection from="-108071733#3" to="108071733#3" fromLane="0" toLane="0"/>

    <connection from="-108071733#4" to="-108071733#3" fromLane="0" toLane="0"/>
    <connection from="-108071733#4" to="108071733#4" fromLane="0" toLane="0"/>

    <connection from="-108071733#5" to="-108071733#4" fromLane="0" toLane="0"/>
    <connection from="-108071733#5" to="-160312839#3" fromLane="0" toLane="0"/>
    <connection from="-108071733#5" to="108071733#5" fromLane="0" toLane="0"/>

    <connection from="-108071733#6" to="-108071733#5" fromLane="0" toLane="0"/>
    <connection from="-108071733#6" to="496257368#16" fromLane="0" toLane="1"/>
    <connection from="-108071733#6" to="108071733#6" fromLane="0" toLane="0"/>

    <connection from="-111343183" to="-497944542" fromLane="0" toLane="0"/>
    <connection from="-111343183" to="111343183" fromLane="0" toLane="0"/>

    <connection from="-111343189#0" to="-496261704#9" fromLane="0" toLane="0"/>
    <connection from="-111343189#0" to="-253751064#8" fromLane="0" toLane="0"/>
    <connection from="-111343189#0" to="298592948#0" fromLane="0" toLane="0"/>
    <connection from="-111343189#0" to="111343189#0" fromLane="0" toLane="0"/>

    <connection from="-111343189#1" to="-111343189#0" fromLane="0" toLane="0"/>
    <connection from="-111343189#1" to="111343189#1" fromLane="0" toLane="0"/>

    <connection from="-111343191" to="-111343183" fromLane="0" toLane="0"/>
    <connection from="-111343191" to="111343191" fromLane="0" toLane="0"/>

    <connection from="-111343192#0" to="307096543#0" fromLane="0" toLane="0"/>
    <connection from="-111343192#0" to="-537706053#4" fromLane="0" toLane="0"/>
    <connection from="-111343192#0" to="-298592948#10" fromLane="0" toLane="0"/>
    <connection from="-111343192#0" to="111343192#0" fromLane="0" toLane="0"/>

    <connection from="-111343192#1" to="-111343192#0" fromLane="0" toLane="0"/>
    <connection from="-111343192#1" to="111343192#1" fromLane="0" toLane="0"/>

    <connection from="-111343192#10" to="-111343192#9" fromLane="0" toLane="0"/>
    <connection from="-111343192#10" to="111343192#10" fromLane="0" toLane="0"/>

    <connection from="-111343192#11" to="-111343192#10" fromLane="0" toLane="0"/>
    <connection from="-111343192#11" to="111343192#11" fromLane="0" toLane="0"/>

    <connection from="-111343192#2" to="-111343192#1" fromLane="0" toLane="0"/>
    <connection from="-111343192#2" to="301736444#0" fromLane="0" toLane="0"/>
    <connection from="-111343192#2" to="111343192#2" fromLane="0" toLane="0"/>

    <connection from="-111343192#3" to="-319263737#3" fromLane="0" toLane="0"/>
    <connection from="-111343192#3" to="-111343192#2" fromLane="0" toLane="0"/>
    <connection from="-111343192#3" to="-301736444#2" fromLane="0" toLane="0"/>
    <connection from="-111343192#3" to="111343192#3" fromLane="0" toLane="0"/>

    <connection from="-111343192#4" to="-111343192#3" fromLane="0" toLane="0"/>
    <connection from="-111343192#4" to="-402805092#4" fromLane="0" toLane="0"/>
    <connection from="-111343192#4" to="111343192#4" fromLane="0" toLane="0"/>

    <connection from="-111343192#5" to="-111343192#4" fromLane="0" toLane="0"/>
    <connection from="-111343192#5" to="111343192#5" fromLane="0" toLane="0"/>

    <connection from="-111343192#6" to="-111343192#5" fromLane="0" toLane="0"/>
    <connection from="-111343192#6" to="-402805089#4" fromLane="0" toLane="0"/>
    <connection from="-111343192#6" to="111343192#6" fromLane="0" toLane="0"/>

    <connection from="-111343192#7" to="199432631#0" fromLane="0" toLane="0"/>
    <connection from="-111343192#7" to="-111343192#6" fromLane="0" toLane="0"/>
    <connection from="-111343192#7" to="111343192#7" fromLane="0" toLane="0"/>

    <connection from="-111343192#8" to="-111343192#7" fromLane="0" toLane="0"/>
    <connection from="-111343192#8" to="444934443" fromLane="0" toLane="0"/>
    <connection from="-111343192#8" to="111343192#8" fromLane="0" toLane="0"/>

    <connection from="-111343192#9" to="-111343192#8" fromLane="0" toLane="0"/>
    <connection from="-111343192#9" to="36827729" fromLane="0" toLane="0"/>
    <connection from="-111343192#9" to="111343192#9" fromLane="0" toLane="0"/>

    <connection from="-111343195#0" to="-297896463#3" fromLane="0" toLane="0"/>
    <connection from="-111343195#0" to="-496493905#3" fromLane="0" toLane="0"/>
    <connection from="-111343195#0" to="306997494" fromLane="0" toLane="0"/>
    <connection from="-111343195#0" to="111343195#0" fromLane="0" toLane="0"/>

    <connection from="-111343195#1" to="160700622#0" fromLane="0" toLane="0"/>
    <connection from="-111343195#1" to="-111343195#0" fromLane="0" toLane="0"/>
    <connection from="-111343195#1" to="111343195#1" fromLane="0" toLane="0"/>

    <connection from="-111343195#2" to="-111343195#1" fromLane="0" toLane="0"/>
    <connection from="-111343195#2" to="551418954#0" fromLane="0" toLane="0"/>
    <connection from="-111343195#2" to="111343195#2" fromLane="0" toLane="0"/>

    <connection from="-111343195#3" to="-307097147#2" fromLane="0" toLane="0"/>
    <connection from="-111343195#3" to="-111343195#2" fromLane="0" toLane="0"/>
    <connection from="-111343195#3" to="307097147#3" fromLane="0" toLane="0"/>
    <connection from="-111343195#3" to="111343195#3" fromLane="0" toLane="0"/>

    <connection from="-111343195#4" to="-111343195#3" fromLane="0" toLane="0"/>
    <connection from="-111343195#4" to="303886962" fromLane="0" toLane="0"/>
    <connection from="-111343195#4" to="111343195#4" fromLane="0" toLane="0"/>

    <connection from="-111343195#5" to="-81239960#4" fromLane="0" toLane="0"/>
    <connection from="-111343195#5" to="-111343195#4" fromLane="0" toLane="0"/>
    <connection from="-111343195#5" to="111343195#5" fromLane="0" toLane="0"/>

    <connection from="-117916593#0" to="38367661#15" fromLane="0" toLane="0"/>
    <connection from="-117916593#0" to="117916593#0" fromLane="0" toLane="0"/>

    <connection from="-117916593#1" to="-117916593#0" fromLane="0" toLane="0"/>
    <connection from="-117916593#1" to="117916593#1" fromLane="0" toLane="0"/>

    <connection from="-117916593#10" to="160197245#4" fromLane="0" toLane="0"/>
    <connection from="-117916593#10" to="-117916593#9" fromLane="0" toLane="0"/>
    <connection from="-117916593#10" to="-160197245#3" fromLane="0" toLane="0"/>
    <connection from="-117916593#10" to="117916593#10" fromLane="0" toLane="0"/>

    <connection from="-117916593#11" to="-117916593#10" fromLane="0" toLane="0"/>
    <connection from="-117916593#11" to="117916593#11" fromLane="0" toLane="0"/>

    <connection from="-117916593#12" to="-117916593#11" fromLane="0" toLane="0"/>
    <connection from="-117916593#12" to="108071712#8" fromLane="0" toLane="0"/>
    <connection from="-117916593#12" to="117916593#12" fromLane="0" toLane="0"/>

    <connection from="-117916593#2" to="-117916593#1" fromLane="0" toLane="0"/>
    <connection from="-117916593#2" to="-161409455" fromLane="0" toLane="0"/>
    <connection from="-117916593#2" to="117916593#2" fromLane="0" toLane="0"/>

    <connection from="-117916593#3" to="-117916593#2" fromLane="0" toLane="0"/>
    <connection from="-117916593#3" to="-161409468" fromLane="0" toLane="0"/>
    <connection from="-117916593#3" to="117916593#3" fromLane="0" toLane="0"/>

    <connection from="-117916593#4" to="-117916593#3" fromLane="0" toLane="0"/>
    <connection from="-117916593#4" to="-161409451" fromLane="0" toLane="0"/>
    <connection from="-117916593#4" to="117916593#4" fromLane="0" toLane="0"/>

    <connection from="-117916593#5" to="-117916593#4" fromLane="0" toLane="0"/>
    <connection from="-117916593#5" to="-161409462#1" fromLane="0" toLane="0"/>
    <connection from="-117916593#5" to="117916593#5" fromLane="0" toLane="0"/>

    <connection from="-117916593#6" to="-117916593#5" fromLane="0" toLane="0"/>
    <connection from="-117916593#6" to="117916593#6" fromLane="0" toLane="0"/>

    <connection from="-117916593#7" to="-160088279#1" fromLane="0" toLane="0"/>
    <connection from="-117916593#7" to="-117916593#6" fromLane="0" toLane="0"/>
    <connection from="-117916593#7" to="-161409479#2" fromLane="0" toLane="0"/>
    <connection from="-117916593#7" to="117916593#7" fromLane="0" toLane="0"/>

    <connection from="-117916593#8" to="-117916593#7" fromLane="0" toLane="0"/>
    <connection from="-117916593#8" to="-161409486#2" fromLane="0" toLane="0"/>
    <connection from="-117916593#8" to="117916593#8" fromLane="0" toLane="0"/>

    <connection from="-117916593#9" to="161409454" fromLane="0" toLane="0"/>
    <connection from="-117916593#9" to="-117916593#8" fromLane="0" toLane="0"/>
    <connection from="-117916593#9" to="117916593#9" fromLane="0" toLane="0"/>

    <connection from="-152086640#0" to="307096544#0" fromLane="0" toLane="0"/>
    <connection from="-152086640#0" to="-497944541" fromLane="0" toLane="0"/>
    <connection from="-152086640#0" to="-158895303#5" fromLane="0" toLane="0"/>
    <connection from="-152086640#0" to="152086640#0" fromLane="0" toLane="0"/>

    <connection from="-152086640#1" to="-159315422#10" fromLane="0" toLane="0"/>
    <connection from="-152086640#1" to="-152086640#0" fromLane="0" toLane="0"/>
    <connection from="-152086640#1" to="152086640#1" fromLane="0" toLane="0"/>

    <connection from="-152086640#2" to="616576112#0" fromLane="0" toLane="0"/>
    <connection from="-152086640#2" to="-152086640#1" fromLane="0" toLane="0"/>
    <connection from="-152086640#2" to="152086640#2" fromLane="0" toLane="0"/>

    <connection from="-152086640#3" to="-152086640#2" fromLane="0" toLane="0"/>
    <connection from="-152086640#3" to="279030722#0" fromLane="0" toLane="0"/>
    <connection from="-152086640#3" to="152086640#3" fromLane="0" toLane="0"/>

    <connection from="-152086640#4" to="-152086640#3" fromLane="0" toLane="0"/>
    <connection from="-152086640#4" to="548117858" fromLane="0" toLane="0"/>
    <connection from="-152086640#4" to="152086640#4" fromLane="0" toLane="0"/>

    <connection from="-152086640#5" to="496249903#1" fromLane="0" toLane="0"/>
    <connection from="-152086640#5" to="-152086640#4" fromLane="0" toLane="0"/>
    <connection from="-152086640#5" to="-496249903#0" fromLane="0" toLane="0"/>
    <connection from="-152086640#5" to="152086640#5" fromLane="0" toLane="0"/>

    <connection from="-152086640#6" to="616576117#0" fromLane="0" toLane="0"/>
    <connection from="-152086640#6" to="-152086640#5" fromLane="0" toLane="0"/>
    <connection from="-152086640#6" to="152086640#6" fromLane="0" toLane="0"/>

    <connection from="-152086644" to="-306977152" fromLane="0" toLane="0"/>
    <connection from="-152086644" to="152086644" fromLane="0" toLane="0"/>

    <connection from="-152086655#0" to="-313194758#2" fromLane="0" toLane="0"/>
    <connection from="-152086655#0" to="152086649" fromLane="0" toLane="0"/>
    <connection from="-152086655#0" to="507869446" fromLane="0" toLane="0"/>
    <connection from="-152086655#0" to="152086655#0" fromLane="0" toLane="0"/>

    <connection from="-152086655#1" to="570589433#0" fromLane="0" toLane="0"/>
    <connection from="-152086655#1" to="-152086655#0" fromLane="0" toLane="0"/>
    <connection from="-152086655#1" to="152086655#1" fromLane="0" toLane="0"/>

    <connection from="-152086655#2" to="-482007537#3" fromLane="0" toLane="0"/>
    <connection from="-152086655#2" to="-152086655#1" fromLane="0" toLane="0"/>
    <connection from="-152086655#2" to="486363286#0" fromLane="0" toLane="0"/>
    <connection from="-152086655#2" to="152086655#2" fromLane="0" toLane="0"/>

    <connection from="-152086655#3" to="-152170719" fromLane="0" toLane="0"/>
    <connection from="-152086655#3" to="-152086655#2" fromLane="0" toLane="0"/>
    <connection from="-152086655#3" to="570589425#0" fromLane="0" toLane="0"/>
    <connection from="-152086655#3" to="152086655#3" fromLane="0" toLane="0"/>

    <connection from="-152086662" to="496249900#0" fromLane="0" toLane="0"/>
    <connection from="-152086662" to="-111343189#1" fromLane="0" toLane="0"/>
    <connection from="-152086662" to="152086658#0" fromLane="0" toLane="0"/>
    <connection from="-152086662" to="152086662" fromLane="0" toLane="0"/>

    <connection from="-152170719" to="152170719" fromLane="0" toLane="0"/>

    <connection from="-152170721#0" to="482007537#2" fromLane="0" toLane="0"/>
    <connection from="-152170721#0" to="279568679" fromLane="0" toLane="0"/>
    <connection from="-152170721#0" to="-482007537#1" fromLane="0" toLane="0"/>
    <connection from="-152170721#0" to="152170721#0" fromLane="0" toLane="0"/>

    <connection from="-152170721#1" to="-482007549#0" fromLane="0" toLane="0"/>
    <connection from="-152170721#1" to="-152170721#0" fromLane="0" toLane="0"/>
    <connection from="-152170721#1" to="482007549#1" fromLane="0" toLane="0"/>
    <connection from="-152170721#1" to="152170721#1" fromLane="0" toLane="0"/>

    <connection from="-152193598#0" to="347015861#1" fromLane="0" toLane="0"/>
    <connection from="-152193598#0" to="152193598#0" fromLane="0" toLane="0"/>

    <connection from="-152193598#1" to="-152193598#0" fromLane="0" toLane="0"/>
    <connection from="-152193598#1" to="152193598#1" fromLane="0" toLane="0"/>

    <connection from="-152193598#2" to="-445548268" fromLane="0" toLane="0"/>
    <connection from="-152193598#2" to="-152193598#1" fromLane="0" toLane="0"/>
    <connection from="-152193598#2" to="152193598#2" fromLane="0" toLane="0"/>

    <connection from="-152193598#3" to="-160700612" fromLane="0" toLane="0"/>
    <connection from="-152193598#3" to="-152193598#2" fromLane="0" toLane="0"/>
    <connection from="-152193598#3" to="152193598#3" fromLane="0" toLane="0"/>

    <connection from="-152193598#4" to="-160911832" fromLane="0" toLane="0"/>
    <connection from="-152193598#4" to="-152193598#3" fromLane="0" toLane="0"/>
    <connection from="-152193598#4" to="496261703#0" fromLane="0" toLane="0"/>
    <connection from="-152193598#4" to="152193598#4" fromLane="0" toLane="0"/>

    <connection from="-152193598#5" to="-152193616#1" fromLane="0" toLane="0"/>
    <connection from="-152193598#5" to="-152193598#4" fromLane="0" toLane="0"/>
    <connection from="-152193598#5" to="160100148#0" fromLane="0" toLane="0"/>
    <connection from="-152193598#5" to="152193598#5" fromLane="0" toLane="0"/>

    <connection from="-152193598#6" to="159315421#2" fromLane="0" toLane="0"/>
    <connection from="-152193598#6" to="-152193598#5" fromLane="0" toLane="0"/>
    <connection from="-152193598#6" to="-159315421#1" fromLane="0" toLane="0"/>
    <connection from="-152193598#6" to="152193598#6" fromLane="0" toLane="0"/>

    <connection from="-152193598#7" to="152193604#5" fromLane="0" toLane="0"/>
    <connection from="-152193598#7" to="-152193598#6" fromLane="0" toLane="0"/>
    <connection from="-152193598#7" to="-152193604#4" fromLane="0" toLane="0"/>
    <connection from="-152193598#7" to="152193598#7" fromLane="0" toLane="0"/>

    <connection from="-152193598#8" to="-160911820#2" fromLane="0" toLane="0"/>
    <connection from="-152193598#8" to="-152193598#7" fromLane="0" toLane="0"/>
    <connection from="-152193598#8" to="160911820#3" fromLane="0" toLane="0"/>
    <connection from="-152193598#8" to="152193598#8" fromLane="0" toLane="0"/>

    <connection from="-152193598#9" to="152193611#8" fromLane="0" toLane="0"/>
    <connection from="-152193598#9" to="-152193598#8" fromLane="0" toLane="0"/>
    <connection from="-152193598#9" to="-152193611#7" fromLane="0" toLane="0"/>
    <connection from="-152193598#9" to="152193598#9" fromLane="0" toLane="0"/>

    <connection from="-152193600#0" to="160700626#1" fromLane="0" toLane="0"/>
    <connection from="-152193600#0" to="152193600#0" fromLane="0" toLane="0"/>

    <connection from="-152193600#1" to="159315421#3" fromLane="0" toLane="0"/>
    <connection from="-152193600#1" to="-152193600#0" fromLane="0" toLane="0"/>
    <connection from="-152193600#1" to="-159315421#2" fromLane="0" toLane="0"/>
    <connection from="-152193600#1" to="152193600#1" fromLane="0" toLane="0"/>

    <connection from="-152193600#2" to="152193604#6" fromLane="0" toLane="0"/>
    <connection from="-152193600#2" to="-152193600#1" fromLane="0" toLane="0"/>
    <connection from="-152193600#2" to="-152193604#5" fromLane="0" toLane="0"/>
    <connection from="-152193600#2" to="152193600#2" fromLane="0" toLane="0"/>

    <connection from="-152193600#3" to="-152193600#2" fromLane="0" toLane="0"/>
    <connection from="-152193600#3" to="551418942" fromLane="0" toLane="0"/>
    <connection from="-152193600#3" to="152193600#3" fromLane="0" toLane="0"/>

    <connection from="-152193600#4" to="-160911820#1" fromLane="0" toLane="0"/>
    <connection from="-152193600#4" to="-152193600#3" fromLane="0" toLane="0"/>
    <connection from="-152193600#4" to="160911820#2" fromLane="0" toLane="0"/>
    <connection from="-152193600#4" to="152193600#4" fromLane="0" toLane="0"/>

    <connection from="-152193600#5" to="152193611#9" fromLane="0" toLane="0"/>
    <connection from="-152193600#5" to="-152193600#4" fromLane="0" toLane="0"/>
    <connection from="-152193600#5" to="-152193611#8" fromLane="0" toLane="0"/>
    <connection from="-152193600#5" to="152193600#5" fromLane="0" toLane="0"/>

    <connection from="-152193602#0" to="160312850#3" fromLane="0" toLane="0"/>
    <connection from="-152193602#0" to="-160312850#2" fromLane="0" toLane="0"/>
    <connection from="-152193602#0" to="152193602#0" fromLane="0" toLane="0"/>

    <connection from="-152193602#1" to="-152193602#0" fromLane="0" toLane="0"/>
    <connection from="-152193602#1" to="610788331" fromLane="0" toLane="0"/>
    <connection from="-152193602#1" to="152193602#1" fromLane="0" toLane="0"/>

    <connection from="-152193602#2" to="152193610#1" fromLane="0" toLane="0"/>
    <connection from="-152193602#2" to="-152193602#1" fromLane="0" toLane="0"/>
    <connection from="-152193602#2" to="-152193610#0" fromLane="0" toLane="0"/>
    <connection from="-152193602#2" to="152193602#2" fromLane="0" toLane="0"/>

    <connection from="-152193602#3" to="-160095095#2" fromLane="0" toLane="0"/>
    <connection from="-152193602#3" to="-152193602#2" fromLane="0" toLane="0"/>
    <connection from="-152193602#3" to="152193602#3" fromLane="0" toLane="0"/>

    <connection from="-152193604#0" to="-152193605#2" fromLane="0" toLane="0"/>
    <connection from="-152193604#0" to="152193605#3" fromLane="0" toLane="0"/>
    <connection from="-152193604#0" to="152193604#0" fromLane="0" toLane="0"/>

    <connection from="-152193604#1" to="186109340" fromLane="0" toLane="0"/>
    <connection from="-152193604#1" to="-152193604#0" fromLane="0" toLane="0"/>
    <connection from="-152193604#1" to="152193604#1" fromLane="0" toLane="0"/>

    <connection from="-152193604#2" to="160700637#0" fromLane="0" toLane="0"/>
    <connection from="-152193604#2" to="-152193604#1" fromLane="0" toLane="0"/>
    <connection from="-152193604#2" to="152193604#2" fromLane="0" toLane="0"/>
