<?xml version="1.0" encoding="UTF-8"?>

<!-- generated on 03/13/19 14:19:33 by Eclipse SUMO netconvert Version 1.1.0
<configuration xmlns:xsi="http://www.w3.org/2001/XMLSchema-instance" xsi:noNamespaceSchemaLocation="http://sumo.dlr.de/xsd/netconvertConfiguration.xsd">

    <input>
        <sumo-net-file value="map.net.xml"/>
    </input>

    <output>
        <plain-output-prefix value="plain"/>
    </output>

    <projection>
        <proj.plain-geo value="true"/>
    </projection>

    <processing>
        <geometry.max-grade.fix value="false"/>
        <offset.disable-normalization value="true"/>
        <lefthand value="false"/>
    </processing>

    <junctions>
        <no-turnarounds value="true"/>
        <junctions.corner-detail value="5"/>
        <junctions.limit-turn-speed value="5.5"/>
        <rectangular-lane-cut value="false"/>
    </junctions>

    <pedestrian>
        <walkingareas value="false"/>
    </pedestrian>

</configuration>
-->

<edges version="1.1" xmlns:xsi="http://www.w3.org/2001/XMLSchema-instance" xsi:noNamespaceSchemaLocation="http://sumo.dlr.de/xsd/edges_file.xsd">
    <edge id="-108071651#0" from="5424675626" to="1240617901" priority="6" type="highway.tertiary" numLanes="1" speed="22.22" shape="120.228145,22.999965 120.228126,23.000110 120.228089,23.000315 120.228017,23.000532 120.227934,23.000722 120.227495,23.001481" disallow="tram rail_urban rail rail_electric ship"/>
    <edge id="-108071651#1" from="1240618254" to="5424675626" priority="6" type="highway.tertiary" numLanes="1" speed="22.22" disallow="tram rail_urban rail rail_electric ship"/>
    <edge id="-108071651#2" from="1240618352" to="1240618254" priority="6" type="highway.tertiary" numLanes="1" speed="22.22" disallow="tram rail_urban rail rail_electric ship"/>
    <edge id="-108071685" from="1240618531" to="1240618035" priority="9" type="highway.primary" numLanes="2" speed="27.78" shape="120.213633,23.004155 120.213873,23.004737 120.214029,23.004916 120.214190,23.005029 120.214829,23.005331 120.215483,23.005630 120.215685,23.005713 120.215911,23.005795" disallow="tram rail_urban rail rail_electric ship"/>
    <edge id="-108071686#0" from="4011972749" to="1650311015" priority="4" type="highway.residential" numLanes="1" speed="13.89" disallow="tram rail_urban rail rail_electric ship"/>
    <edge id="-108071686#1" from="1240618151" to="4011972749" priority="4" type="highway.residential" numLanes="1" speed="13.89" shape="120.231292,22.974306 120.231142,22.974610 120.231002,22.974891 120.230857,22.975228 120.230637,22.975748 120.230513,22.976072 120.230440,22.976347 120.230332,22.976708 120.230281,22.977099 120.230218,22.977445 120.230151,22.977815 120.229970,22.978785 120.229888,22.979202 120.229650,22.980350" disallow="tram rail_urban rail rail_electric ship"/>
    <edge id="-108071705" from="1721697244" to="3070820659" priority="4" type="highway.residential" numLanes="1" speed="13.89" disallow="tram rail_urban rail rail_electric ship"/>
    <edge id="-108071721#0" from="3074414471" to="1721697176" priority="4" type="highway.residential" numLanes="1" speed="13.89" disallow="tram rail_urban rail rail_electric ship"/>
    <edge id="-108071721#1" from="3233186752" to="3074414471" priority="4" type="highway.residential" numLanes="1" speed="13.89" shape="120.231146,22.992979 120.231937,22.992894 120.232617,22.992828" disallow="tram rail_urban rail rail_electric ship"/>
    <edge id="-108071722#0" from="1721697345" to="1721697349" priority="4" type="highway.residential" numLanes="1" speed="13.89" disallow="tram rail_urban rail rail_electric ship"/>
    <edge id="-108071722#1" from="5424067670" to="1721697345" priority="4" type="highway.residential" numLanes="1" speed="13.89" disallow="tram rail_urban rail rail_electric ship"/>
    <edge id="-108071722#10" from="3207407196" to="3767382341" priority="4" type="highway.residential" numLanes="1" speed="13.89" disallow="tram rail_urban rail rail_electric ship"/>
    <edge id="-108071722#11" from="1721697259" to="3207407196" priority="4" type="highway.residential" numLanes="1" speed="13.89" disallow="tram rail_urban rail rail_electric ship"/>
    <edge id="-108071722#12" from="1240618664" to="1721697259" priority="4" type="highway.residential" numLanes="1" speed="13.89" disallow="tram rail_urban rail rail_electric ship"/>
    <edge id="-108071722#2" from="5388446808" to="5424067670" priority="4" type="highway.residential" numLanes="1" speed="13.89" disallow="tram rail_urban rail rail_electric ship"/>
    <edge id="-108071722#3" from="3767361282" to="5388446808" priority="4" type="highway.residential" numLanes="1" speed="13.89" disallow="tram rail_urban rail rail_electric ship"/>
    <edge id="-108071722#4" from="1723131539" to="3767361282" priority="4" type="highway.residential" numLanes="1" speed="13.89" disallow="tram rail_urban rail rail_electric ship"/>
    <edge id="-108071722#5" from="1721697305" to="1723131539" priority="4" type="highway.residential" numLanes="1" speed="13.89" disallow="tram rail_urban rail rail_electric ship"/>
    <edge id="-108071722#6" from="1723131525" to="1721697305" priority="4" type="highway.residential" numLanes="1" speed="13.89" disallow="tram rail_urban rail rail_electric ship"/>
    <edge id="-108071722#7" from="1721697293" to="1723131525" priority="4" type="highway.residential" numLanes="1" speed="13.89" disallow="tram rail_urban rail rail_electric ship"/>
    <edge id="-108071722#8" from="1723131515" to="1721697293" priority="4" type="highway.residential" numLanes="1" speed="13.89" disallow="tram rail_urban rail rail_electric ship"/>
    <edge id="-108071722#9" from="3767382341" to="1723131515" priority="4" type="highway.residential" numLanes="1" speed="13.89" disallow="tram rail_urban rail rail_electric ship"/>
    <edge id="-108071723" from="1240617960" to="1240618338" priority="2" type="highway.service" numLanes="1" speed="5.56" allow="delivery bicycle pedestrian"/>
    <edge id="-108071730#0" from="5424734011" to="3014675354" priority="4" type="highway.residential" numLanes="1" speed="13.89" disallow="tram rail_urban rail rail_electric ship"/>
    <edge id="-108071730#1" from="1727568970" to="5424734011" priority="4" type="highway.residential" numLanes="1" speed="13.89" disallow="tram rail_urban rail rail_electric ship"/>
    <edge id="-108071730#10" from="4893788545" to="1732343491" priority="4" type="highway.residential" numLanes="1" speed="13.89" disallow="tram rail_urban rail rail_electric ship"/>
    <edge id="-108071730#11" from="1721696975" to="4893788545" priority="4" type="highway.residential" numLanes="1" speed="13.89" disallow="tram rail_urban rail rail_electric ship"/>
    <edge id="-108071730#12" from="1731668720" to="1721696975" priority="4" type="highway.residential" numLanes="1" speed="13.89" shape="120.221216,22.978439 120.220178,22.979164 120.219745,22.979466" disallow="tram rail_urban rail rail_electric ship"/>
    <edge id="-108071730#13" from="1721696951" to="1731668720" priority="4" type="highway.residential" numLanes="1" speed="13.89" disallow="tram rail_urban rail rail_electric ship"/>
    <edge id="-108071730#14" from="1240618374" to="1721696951" priority="4" type="highway.residential" numLanes="1" speed="13.89" shape="120.224801,22.975935 120.224314,22.976275 120.223557,22.976804 120.223160,22.977081 120.222077,22.977838 120.221663,22.978127" disallow="tram rail_urban rail rail_electric ship"/>
    <edge id="-108071730#2" from="1732343498" to="1727568970" priority="4" type="highway.residential" numLanes="1" speed="13.89" disallow="tram rail_urban rail rail_electric ship"/>
    <edge id="-108071730#3" from="3129328069" to="1732343498" priority="4" type="highway.residential" numLanes="1" speed="13.89" disallow="tram rail_urban rail rail_electric ship"/>
    <edge id="-108071730#4" from="1732343497" to="3129328069" priority="4" type="highway.residential" numLanes="1" speed="13.89" disallow="tram rail_urban rail rail_electric ship"/>
    <edge id="-108071730#5" from="3129328041" to="1732343497" priority="4" type="highway.residential" numLanes="1" speed="13.89" disallow="tram rail_urban rail rail_electric ship"/>
    <edge id="-108071730#6" from="3129328039" to="3129328041" priority="4" type="highway.residential" numLanes="1" speed="13.89" disallow="tram rail_urban rail rail_electric ship"/>
    <edge id="-108071730#7" from="1732343495" to="3129328039" priority="4" type="highway.residential" numLanes="1" speed="13.89" disallow="tram rail_urban rail rail_electric ship"/>
    <edge id="-108071730#8" from="1732343493" to="1732343495" priority="4" type="highway.residential" numLanes="1" speed="13.89" shape="120.218244,22.980515 120.218078,22.980635 120.218021,22.980699" disallow="tram rail_urban rail rail_electric ship"/>
    <edge id="-108071730#9" from="1732343491" to="1732343493" priority="4" type="highway.residential" numLanes="1" speed="13.89" disallow="tram rail_urban rail rail_electric ship"/>
    <edge id="-108071733#0" from="1721697341" to="1240618052" priority="4" type="highway.residential" numLanes="1" speed="13.89" disallow="tram rail_urban rail rail_electric ship"/>
    <edge id="-108071733#1" from="2863773100" to="1721697341" priority="4" type="highway.residential" numLanes="1" speed="13.89" disallow="tram rail_urban rail rail_electric ship"/>
    <edge id="-108071733#2" from="1240618572" to="2863773100" priority="4" type="highway.residential" numLanes="1" speed="13.89" disallow="tram rail_urban rail rail_electric ship"/>
    <edge id="-108071733#3" from="5424067681" to="1240618572" priority="4" type="highway.residential" numLanes="1" speed="13.89" disallow="tram rail_urban rail rail_electric ship"/>
    <edge id="-108071733#4" from="1240617981" to="5424067681" priority="4" type="highway.residential" numLanes="1" speed="13.89" disallow="tram rail_urban rail rail_electric ship"/>
    <edge id="-108071733#5" from="1650294505" to="1240617981" priority="4" type="highway.residential" numLanes="1" speed="13.89" disallow="tram rail_urban rail rail_electric ship"/>
    <edge id="-108071733#6" from="3207407927" to="1650294505" priority="4" type="highway.residential" numLanes="1" speed="13.89" disallow="tram rail_urban rail rail_electric ship"/>
    <edge id="-111343183" from="265766602" to="265766601" priority="6" type="highway.tertiary" numLanes="1" speed="22.22" shape="120.213465,22.993612 120.213622,22.993373 120.213801,22.993150 120.214018,22.992959 120.214266,22.992788 120.214544,22.992694" disallow="tram rail_urban rail rail_electric ship"/>
    <edge id="-111343189#0" from="5755803159" to="256016221" priority="6" type="highway.tertiary" numLanes="1" speed="22.22" disallow="tram rail_urban rail rail_electric ship"/>
    <edge id="-111343189#1" from="4309917339" to="5755803159" priority="6" type="highway.tertiary" numLanes="1" speed="22.22" disallow="tram rail_urban rail rail_electric ship"/>
    <edge id="-111343191" from="3120139239" to="265766602" priority="6" type="highway.tertiary" numLanes="1" speed="22.22" shape="120.212902,22.994453 120.213388,22.993728 120.213465,22.993612" disallow="tram rail_urban rail rail_electric ship"/>
    <edge id="-111343192#0" from="5485764941" to="355961064" priority="3" type="highway.living_street" numLanes="1" speed="8.33" disallow="tram rail_urban rail rail_electric ship"/>
    <edge id="-111343192#1" from="3058330170" to="5485764941" priority="3" type="highway.living_street" numLanes="1" speed="8.33" disallow="tram rail_urban rail rail_electric ship"/>
    <edge id="-111343192#10" from="5755803127" to="1723635553" priority="3" type="highway.living_street" numLanes="1" speed="8.33" disallow="tram rail_urban rail rail_electric ship"/>
    <edge id="-111343192#11" from="1650294499" to="5755803127" priority="3" type="highway.living_street" numLanes="1" speed="8.33" disallow="tram rail_urban rail rail_electric ship"/>
    <edge id="-111343192#2" from="3256733522" to="3058330170" priority="3" type="highway.living_street" numLanes="1" speed="8.33" disallow="tram rail_urban rail rail_electric ship"/>
    <edge id="-111343192#3" from="3908573835" to="3256733522" priority="3" type="highway.living_street" numLanes="1" speed="8.33" disallow="tram rail_urban rail rail_electric ship"/>
    <edge id="-111343192#4" from="5610895025" to="3908573835" priority="3" type="highway.living_street" numLanes="1" speed="8.33" disallow="tram rail_urban rail rail_electric ship"/>
    <edge id="-111343192#5" from="4957072765" to="5610895025" priority="3" type="highway.living_street" numLanes="1" speed="8.33" disallow="tram rail_urban rail rail_electric ship"/>
    <edge id="-111343192#6" from="2094383140" to="4957072765" priority="3" type="highway.living_street" numLanes="1" speed="8.33" disallow="tram rail_urban rail rail_electric ship"/>
    <edge id="-111343192#7" from="1650311127" to="2094383140" priority="3" type="highway.living_street" numLanes="1" speed="8.33" disallow="tram rail_urban rail rail_electric ship"/>
    <edge id="-111343192#8" from="428093552" to="1650311127" priority="3" type="highway.living_street" numLanes="1" speed="8.33" disallow="tram rail_urban rail rail_electric ship"/>
    <edge id="-111343192#9" from="1723635553" to="428093552" priority="3" type="highway.living_street" numLanes="1" speed="8.33" disallow="tram rail_urban rail rail_electric ship"/>
    <edge id="-111343195#0" from="1727367678" to="2835227770" priority="4" type="highway.residential" numLanes="1" speed="13.89" disallow="tram rail_urban rail rail_electric ship"/>
    <edge id="-111343195#1" from="5325340038" to="1727367678" priority="4" type="highway.residential" numLanes="1" speed="13.89" disallow="tram rail_urban rail rail_electric ship"/>
    <edge id="-111343195#2" from="355960699" to="5325340038" priority="4" type="highway.residential" numLanes="1" speed="13.89" disallow="tram rail_urban rail rail_electric ship"/>
    <edge id="-111343195#3" from="5270554268" to="355960699" priority="4" type="highway.residential" numLanes="1" speed="13.89" disallow="tram rail_urban rail rail_electric ship"/>
    <edge id="-111343195#4" from="946524414" to="5270554268" priority="4" type="highway.residential" numLanes="1" speed="13.89" disallow="tram rail_urban rail rail_electric ship"/>
    <edge id="-111343195#5" from="2835227693" to="946524414" priority="4" type="highway.residential" numLanes="1" speed="13.89" disallow="tram rail_urban rail rail_electric ship"/>
    <edge id="-117916593#0" from="5393103546" to="3029056651" priority="2" type="highway.service" numLanes="1" speed="5.56" shape="120.221712,23.006822 120.221400,23.007063 120.221273,23.007094" allow="delivery bicycle pedestrian"/>
    <edge id="-117916593#1" from="1733837214" to="5393103546" priority="2" type="highway.service" numLanes="1" speed="5.56" allow="delivery bicycle pedestrian"/>
    <edge id="-117916593#10" from="5424675771" to="1722611183" priority="2" type="highway.service" numLanes="1" speed="5.56" allow="delivery bicycle pedestrian"/>
    <edge id="-117916593#11" from="1327232019" to="5424675771" priority="2" type="highway.service" numLanes="1" speed="5.56" allow="delivery bicycle pedestrian"/>
    <edge id="-117916593#12" from="1327232061" to="1327232019" priority="2" type="highway.service" numLanes="1" speed="5.56" allow="delivery bicycle pedestrian"/>
    <edge id="-117916593#2" from="1733837202" to="1733837214" priority="2" type="highway.service" numLanes="1" speed="5.56" allow="delivery bicycle pedestrian"/>
    <edge id="-117916593#3" from="1733837186" to="1733837202" priority="2" type="highway.service" numLanes="1" speed="5.56" allow="delivery bicycle pedestrian"/>
    <edge id="-117916593#4" from="1733837166" to="1733837186" priority="2" type="highway.service" numLanes="1" speed="5.56" allow="delivery bicycle pedestrian"/>
    <edge id="-117916593#5" from="5393095712" to="1733837166" priority="2" type="highway.service" numLanes="1" speed="5.56" allow="delivery bicycle pedestrian"/>
    <edge id="-117916593#6" from="1733837145" to="5393095712" priority="2" type="highway.service" numLanes="1" speed="5.56" allow="delivery bicycle pedestrian"/>
    <edge id="-117916593#7" from="1733837126" to="1733837145" priority="2" type="highway.service" numLanes="1" speed="5.56" allow="delivery bicycle pedestrian"/>
    <edge id="-117916593#8" from="1733837123" to="1733837126" priority="2" type="highway.service" numLanes="1" speed="5.56" allow="delivery bicycle pedestrian"/>
    <edge id="-117916593#9" from="1722611183" to="1733837123" priority="2" type="highway.service" numLanes="1" speed="5.56" allow="delivery bicycle pedestrian"/>
    <edge id="-152086640#0" from="1714206077" to="1649165602" priority="6" type="highway.tertiary" numLanes="1" speed="22.22" shape="120.210872,22.994499 120.211011,22.994501 120.211781,22.994526" disallow="tram rail_urban rail rail_electric ship"/>
    <edge id="-152086640#1" from="1816485437" to="1714206077" priority="6" type="highway.tertiary" numLanes="1" speed="22.22" disallow="tram rail_urban rail rail_electric ship"/>
    <edge id="-152086640#2" from="1723635496" to="1816485437" priority="6" type="highway.tertiary" numLanes="1" speed="22.22" disallow="tram rail_urban rail rail_electric ship"/>
    <edge id="-152086640#3" from="5295514967" to="1723635496" priority="6" type="highway.tertiary" numLanes="1" speed="22.22" disallow="tram rail_urban rail rail_electric ship"/>
    <edge id="-152086640#4" from="265766607" to="5295514967" priority="6" type="highway.tertiary" numLanes="1" speed="22.22" disallow="tram rail_urban rail rail_electric ship"/>
    <edge id="-152086640#5" from="1816485439" to="265766607" priority="6" type="highway.tertiary" numLanes="1" speed="22.22" disallow="tram rail_urban rail rail_electric ship"/>
    <edge id="-152086640#6" from="265766615" to="1816485439" priority="6" type="highway.tertiary" numLanes="1" speed="22.22" shape="120.208527,22.994745 120.208595,22.994728 120.208737,22.994691" disallow="tram rail_urban rail rail_electric ship"/>
    <edge id="-152086644" from="3534650730" to="265766606" priority="6" type="highway.tertiary" numLanes="1" speed="22.22" disallow="tram rail_urban rail rail_electric ship"/>
    <edge id="-152086655#0" from="4748790567" to="1649165543" priority="4" type="highway.residential" numLanes="1" speed="13.89" disallow="tram rail_urban rail rail_electric ship"/>
    <edge id="-152086655#1" from="4748790560" to="4748790567" priority="4" type="highway.residential" numLanes="1" speed="13.89" shape="120.214702,22.994320 120.213989,22.994375 120.213810,22.994389 120.213627,22.994403" disallow="tram rail_urban rail rail_electric ship"/>
    <edge id="-152086655#2" from="1649982913" to="4748790560" priority="4" type="highway.residential" numLanes="1" speed="13.89" shape="120.215133,22.994287 120.214989,22.994298 120.214845,22.994309 120.214702,22.994320" disallow="tram rail_urban rail rail_electric ship"/>
    <edge id="-152086655#3" from="1713837515" to="1649982913" priority="4" type="highway.residential" numLanes="1" speed="13.89" disallow="tram rail_urban rail rail_electric ship"/>
    <edge id="-152086662" from="4894404752" to="4309917339" priority="6" type="highway.tertiary" numLanes="1" speed="22.22" disallow="tram rail_urban rail rail_electric ship"/>
    <edge id="-152170719" from="1649982913" to="1649995846" priority="2" type="highway.service" numLanes="1" speed="5.56" allow="delivery bicycle pedestrian"/>
    <edge id="-152170721#0" from="5485765007" to="4423937365" priority="2" type="highway.service" numLanes="1" speed="5.56" allow="delivery bicycle pedestrian"/>
    <edge id="-152170721#1" from="1649995855" to="5485765007" priority="2" type="highway.service" numLanes="1" speed="5.56" allow="delivery bicycle pedestrian"/>
    <edge id="-152193598#0" from="5424734164" to="1727367569" priority="4" type="highway.residential" numLanes="1" speed="13.89" disallow="tram rail_urban rail rail_electric ship"/>
    <edge id="-152193598#1" from="4429575872" to="5424734164" priority="4" type="highway.residential" numLanes="1" speed="13.89" shape="120.215223,22.983033 120.215243,22.982952 120.215237,22.982789 120.215212,22.982633 120.215209,22.982488 120.215230,22.982294" disallow="tram rail_urban rail rail_electric ship"/>
    <edge id="-152193598#2" from="1727367595" to="4429575872" priority="4" type="highway.residential" numLanes="1" speed="13.89" shape="120.215010,22.983359 120.215015,22.983329 120.215100,22.983224 120.215189,22.983114 120.215223,22.983033" disallow="tram rail_urban rail rail_electric ship"/>
    <edge id="-152193598#3" from="1727367610" to="1727367595" priority="4" type="highway.residential" numLanes="1" speed="13.89" shape="120.215168,22.984715 120.215169,22.984627 120.215208,22.984415 120.215278,22.984224 120.215295,22.984049 120.215266,22.983850 120.215191,22.983746 120.215060,22.983665 120.215001,22.983570 120.214996,22.983435 120.215010,22.983359" disallow="tram rail_urban rail rail_electric ship"/>
    <edge id="-152193598#4" from="1650294400" to="1727367610" priority="4" type="highway.residential" numLanes="1" speed="13.89" disallow="tram rail_urban rail rail_electric ship"/>
    <edge id="-152193598#5" from="3958591777" to="1650294400" priority="4" type="highway.residential" numLanes="1" speed="13.89" disallow="tram rail_urban rail rail_electric ship"/>
    <edge id="-152193598#6" from="1650294410" to="3958591777" priority="4" type="highway.residential" numLanes="1" speed="13.89" disallow="tram rail_urban rail rail_electric ship"/>
    <edge id="-152193598#7" from="4309978166" to="1650294410" priority="4" type="highway.residential" numLanes="1" speed="13.89" disallow="tram rail_urban rail rail_electric ship"/>
    <edge id="-152193598#8" from="1650294419" to="4309978166" priority="4" type="highway.residential" numLanes="1" speed="13.89" disallow="tram rail_urban rail rail_electric ship"/>
    <edge id="-152193598#9" from="1650294432" to="1650294419" priority="4" type="highway.residential" numLanes="1" speed="13.89" disallow="tram rail_urban rail rail_electric ship"/>
    <edge id="-152193600#0" from="1714205980" to="1727367634" priority="2" type="highway.service" numLanes="1" speed="5.56" allow="delivery bicycle pedestrian"/>
    <edge id="-152193600#1" from="1650294414" to="1714205980" priority="2" type="highway.service" numLanes="1" speed="5.56" allow="delivery bicycle pedestrian"/>
    <edge id="-152193600#2" from="5325339211" to="1650294414" priority="2" type="highway.service" numLanes="1" speed="5.56" allow="delivery bicycle pedestrian"/>
    <edge id="-152193600#3" from="1714206019" to="5325339211" priority="2" type="highway.service" numLanes="1" speed="5.56" allow="delivery bicycle pedestrian"/>
    <edge id="-152193600#4" from="1650294426" to="1714206019" priority="2" type="highway.service" numLanes="1" speed="5.56" allow="delivery bicycle pedestrian"/>
    <edge id="-152193600#5" from="1650294438" to="1650294426" priority="2" type="highway.service" numLanes="1" speed="5.56" allow="delivery bicycle pedestrian"/>
    <edge id="-152193602#0" from="5784086049" to="1650294543" priority="2" type="highway.service" numLanes="1" speed="5.56" allow="delivery bicycle pedestrian"/>
    <edge id="-152193602#1" from="1650294527" to="5784086049" priority="2" type="highway.service" numLanes="1" speed="5.56" allow="delivery bicycle pedestrian"/>
    <edge id="-152193602#2" from="1721697435" to="1650294527" priority="2" type="highway.service" numLanes="1" speed="5.56" allow="delivery bicycle pedestrian"/>
    <edge id="-152193602#3" from="1721697431" to="1721697435" priority="2" type="highway.service" numLanes="1" speed="5.56" shape="120.230514,23.000174 120.229993,23.000186 120.229894,23.000202" allow="delivery bicycle pedestrian"/>
    <edge id="-152193604#0" from="1968133671" to="1650294405" priority="4" type="highway.residential" numLanes="1" speed="13.89" disallow="tram rail_urban rail rail_electric ship"/>
    <edge id="-152193604#1" from="4429576989" to="1968133671" priority="4" type="highway.residential" numLanes="1" speed="13.89" disallow="tram rail_urban rail rail_electric ship"/>
    <edge id="-152193604#2" from="1727367637" to="4429576989" priority="4" type="highway.residential" numLanes="1" speed="13.89" disallow="tram rail_urban rail rail_electric ship"/>
    <edge id="-152193604#3" from="1727367638" to="1727367637" priority="4" type="highway.residential" numLanes="1" speed="13.89" disallow="tram rail_urban rail rail_electric ship"/>
    <edge id="-152193604#4" from="1650294410" to="1727367638" priority="4" type="highway.residential" numLanes="1" speed="13.89" disallow="tram rail_urban rail rail_electric ship"/>
    <edge id="-152193604#5" from="1650294414" to="1650294410" priority="4" type="highway.residential" numLanes="1" speed="13.89" disallow="tram rail_urban rail rail_electric ship"/>
    <edge id="-152193604#6" from="1650294415" to="1650294414" priority="4" type="highway.residential" numLanes="1" speed="13.89" disallow="tram rail_urban rail rail_electric ship"/>
    <edge id="-152193604#7" from="4429576990" to="1650294415" priority="4" type="highway.residential" numLanes="1" speed="13.89" disallow="tram rail_urban rail rail_electric ship"/>
    <edge id="-152193604#8" from="1650294417" to="4429576990" priority="4" type="highway.residential" numLanes="1" speed="13.89" disallow="tram rail_urban rail rail_electric ship"/>
    <edge id="-152193605#0" from="1968133645" to="1650294396" priority="4" type="highway.residential" numLanes="1" speed="13.89" disallow="tram rail_urban rail rail_electric ship"/>
    <edge id="-152193605#1" from="1968133653" to="1968133645" priority="4" type="highway.residential" numLanes="1" speed="13.89" disallow="tram rail_urban rail rail_electric ship"/>
    <edge id="-152193605#2" from="1650294405" to="1968133653" priority="4" type="highway.residential" numLanes="1" speed="13.89" disallow="tram rail_urban rail rail_electric ship"/>
    <edge id="-152193605#3" from="1721748940" to="1650294405" priority="4" type="highway.residential" numLanes="1" speed="13.89" disallow="tram rail_urban rail rail_electric ship"/>
    <edge id="-152193605#4" from="1650294412" to="1721748940" priority="4" type="highway.residential" numLanes="1" speed="13.89" disallow="tram rail_urban rail rail_electric ship"/>
    <edge id="-152193605#5" from="1650294422" to="1650294412" priority="4" type="highway.residential" numLanes="1" speed="13.89" disallow="tram rail_urban rail rail_electric ship"/>
    <edge id="-152193608" from="3646920686" to="1650294459" priority="2" type="highway.service" numLanes="1" speed="5.56" allow="delivery bicycle pedestrian"/>
    <edge id="-152193610#0" from="1650294527" to="1650294516" priority="2" type="highway.service" numLanes="1" speed="5.56" shape="120.229222,23.000809 120.228743,23.000533 120.228645,23.000487" allow="delivery bicycle pedestrian"/>
    <edge id="-152193610#1" from="1650294535" to="1650294527" priority="2" type="highway.service" numLanes="1" speed="5.56" shape="120.229675,23.001240 120.229281,23.000856 120.229222,23.000809" allow="delivery bicycle pedestrian"/>
    <edge id="-152193611#0" from="4335085690" to="1721697099" priority="4" type="highway.residential" numLanes="1" speed="13.89" disallow="tram rail_urban rail rail_electric ship"/>
    <edge id="-152193611#1" from="1721697103" to="4335085690" priority="4" type="highway.residential" numLanes="1" speed="13.89" disallow="tram rail_urban rail rail_electric ship"/>
    <edge id="-152193611#2" from="1650294407" to="1721697103" priority="4" type="highway.residential" numLanes="1" speed="13.89" disallow="tram rail_urban rail rail_electric ship"/>
    <edge id="-152193611#3" from="1650294408" to="1650294407" priority="4" type="highway.residential" numLanes="1" speed="13.89" disallow="tram rail_urban rail rail_electric ship"/>
    <edge id="-152193611#4" from="1968086088" to="1650294408" priority="4" type="highway.residential" numLanes="1" speed="13.89" disallow="tram rail_urban rail rail_electric ship"/>
    <edge id="-152193611#5" from="1650294412" to="1968086088" priority="4" type="highway.residential" numLanes="1" speed="13.89" disallow="tram rail_urban rail rail_electric ship"/>
    <edge id="-152193611#6" from="1727367651" to="1650294412" priority="4" type="highway.residential" numLanes="1" speed="13.89" disallow="tram rail_urban rail rail_electric ship"/>
    <edge id="-152193611#7" from="1650294419" to="1727367651" priority="4" type="highway.residential" numLanes="1" speed="13.89" disallow="tram rail_urban rail rail_electric ship"/>
    <edge id="-152193611#8" from="1650294426" to="1650294419" priority="4" type="highway.residential" numLanes="1" speed="13.89" disallow="tram rail_urban rail rail_electric ship"/>
    <edge id="-152193611#9" from="1650294434" to="1650294426" priority="4" type="highway.residential" numLanes="1" speed="13.89" disallow="tram rail_urban rail rail_electric ship"/>
    <edge id="-152193612#0" from="1650294467" to="949661334" priority="2" type="highway.service" numLanes="1" speed="5.56" shape="120.212203,22.989735 120.212425,22.989004 120.212555,22.988633" allow="delivery bicycle pedestrian"/>
    <edge id="-152193612#1" from="1723131472" to="1650294467" priority="2" type="highway.service" numLanes="1" speed="5.56" shape="120.211975,22.990742 120.211989,22.990659 120.212134,22.989935 120.212203,22.989735" allow="delivery bicycle pedestrian"/>
    <edge id="-152193612#2" from="1650294483" to="1723131472" priority="2" type="highway.service" numLanes="1" speed="5.56" shape="120.211941,22.991534 120.211934,22.991346 120.211975,22.990742" allow="delivery bicycle pedestrian"/>
    <edge id="-152193614#0" from="5424675624" to="1650294513" priority="2" type="highway.service" numLanes="1" speed="5.56" allow="delivery bicycle pedestrian"/>
    <edge id="-152193614#1" from="4375474559" to="5424675624" priority="2" type="highway.service" numLanes="1" speed="5.56" allow="delivery bicycle pedestrian"/>