<?xml version="1.0" encoding="UTF-8"?>

<!-- generated on 03/13/19 14:19:33 by Eclipse SUMO netconvert Version 1.1.0
<configuration xmlns:xsi="http://www.w3.org/2001/XMLSchema-instance" xsi:noNamespaceSchemaLocation="http://sumo.dlr.de/xsd/netconvertConfiguration.xsd">

    <input>
        <sumo-net-file value="map.net.xml"/>
    </input>

    <output>
        <plain-output-prefix value="plain"/>
    </output>

    <projection>
        <proj.plain-geo value="true"/>
    </projection>

    <processing>
        <geometry.max-grade.fix value="false"/>
        <offset.disable-normalization value="true"/>
        <lefthand value="false"/>
    </processing>

    <junctions>
        <no-turnarounds value="true"/>
        <junctions.corner-detail value="5"/>
        <junctions.limit-turn-speed value="5.5"/>
        <rectangular-lane-cut value="false"/>
    </junctions>

    <pedestrian>
        <walkingareas value="false"/>
    </pedestrian>

</configuration>
-->

<tlLogics version="1.1" xmlns:xsi="http://www.w3.org/2001/XMLSchema-instance" xsi:noNamespaceSchemaLocation="http://sumo.dlr.de/xsd/tllogic_file.xsd">
    <tlLogic id="1235793159" type="static" programID="0" offset="0">
        <phase duration="40" state="GGgrrrGgg"/>
        <phase duration="5"  state="yyyrrryyy"/>
        <phase duration="40" state="rrrGGGrrr"/>
        <phase duration="5"  state="rrryyyrrr"/>
    </tlLogic>
    <tlLogic id="1235793185" type="static" programID="0" offset="0">
        <phase duration="40" state="GggGGgrrrr"/>
        <phase duration="5"  state="yyyyyyrrrr"/>
        <phase duration="40" state="rrrrrrGGGG"/>
        <phase duration="5"  state="rrrrrryyyy"/>
    </tlLogic>
    <tlLogic id="1235793266" type="static" programID="0" offset="0">
        <phase duration="40" state="GGrr"/>
        <phase duration="5"  state="yyrr"/>
        <phase duration="40" state="rrGG"/>
        <phase duration="5"  state="rryy"/>
    </tlLogic>
    <tlLogic id="1235793378" type="static" programID="0" offset="0">
        <phase duration="80" state="G"/>
        <phase duration="5"  state="y"/>
        <phase duration="5"  state="r"/>
    </tlLogic>
    <tlLogic id="1235793433" type="static" programID="0" offset="0">
        <phase duration="40" state="GggGGgrrr"/>
        <phase duration="5"  state="yyyyyyrrr"/>
        <phase duration="40" state="rrrrrrGGG"/>
        <phase duration="5"  state="rrrrrryyy"/>
    </tlLogic>
    <tlLogic id="1235793463" type="static" programID="0" offset="0">
        <phase duration="40" state="GGgrrrrGgg"/>
        <phase duration="5"  state="yyyrrrryyy"/>
        <phase duration="40" state="rrrGGGGrrr"/>
        <phase duration="5"  state="rrryyyyrrr"/>
    </tlLogic>
    <tlLogic id="1235793592" type="static" programID="0" offset="0">
        <phase duration="40" state="GggGGgrrr"/>
        <phase duration="5"  state="yyyyyyrrr"/>
        <phase duration="40" state="rrrrrrGGG"/>
        <phase duration="5"  state="rrrrrryyy"/>
    </tlLogic>
    <tlLogic id="1235793686" type="static" programID="0" offset="0">
        <phase duration="40" state="GGrr"/>
        <phase duration="5"  state="yyrr"/>
        <phase duration="40" state="rrGG"/>
        <phase duration="5"  state="rryy"/>
    </tlLogic>
    <tlLogic id="1235793743" type="static" programID="0" offset="0">
        <phase duration="40" state="GGrr"/>
        <phase duration="5"  state="yyrr"/>
        <phase duration="40" state="rrGG"/>
        <phase duration="5"  state="rryy"/>
    </tlLogic>
    <tlLogic id="1240286939" type="static" programID="0" offset="0">
        <phase duration="82" state="GgGg"/>
        <phase duration="3"  state="yyyy"/>
        <phase duration="5"  state="rrrr"/>
    </tlLogic>
    <tlLogic id="1240287126" type="static" programID="0" offset="0">
        <phase duration="82" state="G"/>
        <phase duration="3"  state="y"/>
        <phase duration="5"  state="r"/>
    </tlLogic>
    <tlLogic id="1240287231" type="static" programID="0" offset="0">
        <phase duration="82" state="GgGg"/>
        <phase duration="3"  state="yyyy"/>
        <phase duration="5"  state="rrrr"/>
    </tlLogic>
    <tlLogic id="1240287373" type="static" programID="0" offset="0">
        <phase duration="82" state="GgGg"/>
        <phase duration="3"  state="yyyy"/>
        <phase duration="5"  state="rrrr"/>
    </tlLogic>
    <tlLogic id="1240288029" type="static" programID="0" offset="0">
        <phase duration="82" state="GgGg"/>
        <phase duration="3"  state="yyyy"/>
        <phase duration="5"  state="rrrr"/>
    </tlLogic>
    <tlLogic id="1240288300" type="static" programID="0" offset="0">
        <phase duration="82" state="GgGg"/>
        <phase duration="3"  state="yyyy"/>
        <phase duration="5"  state="rrrr"/>
    </tlLogic>
    <tlLogic id="1240288761" type="static" programID="0" offset="0">
        <phase duration="82" state="GgGg"/>
        <phase duration="3"  state="yyyy"/>
        <phase duration="5"  state="rrrr"/>
    </tlLogic>
    <tlLogic id="1240617698" type="static" programID="0" offset="0">
        <phase duration="40" state="GGrr"/>
        <phase duration="5"  state="yyrr"/>
        <phase duration="40" state="rrGG"/>
        <phase duration="5"  state="rryy"/>
    </tlLogic>
    <tlLogic id="1240617718" type="static" programID="0" offset="0">
        <phase duration="40" state="GGgrrrGgg"/>
        <phase duration="5"  state="yyyrrryyy"/>
        <phase duration="40" state="rrrGGGrrr"/>
        <phase duration="5"  state="rrryyyrrr"/>
    </tlLogic>
    <tlLogic id="1240617801" type="static" programID="0" offset="0">
        <phase duration="39" state="GGGrr"/>
        <phase duration="6"  state="yyyrr"/>
        <phase duration="39" state="rrrGG"/>
        <phase duration="6"  state="rrryy"/>
    </tlLogic>
    <tlLogic id="1240617931" type="static" programID="0" offset="0">
        <phase duration="40" state="GggGGgrrr"/>
        <phase duration="5"  state="yyyyyyrrr"/>
        <phase duration="40" state="rrrrrrGGG"/>
        <phase duration="5"  state="rrrrrryyy"/>
    </tlLogic>
    <tlLogic id="1240617955" type="static" programID="0" offset="0">
        <phase duration="39" state="GGrrr"/>
        <phase duration="6"  state="yyrrr"/>
        <phase duration="39" state="rrGGG"/>
        <phase duration="6"  state="rryyy"/>
    </tlLogic>
    <tlLogic id="1240617963" type="static" programID="0" offset="0">
        <phase duration="40" state="GGrr"/>
        <phase duration="5"  state="yyrr"/>
        <phase duration="40" state="rrGG"/>
        <phase duration="5"  state="rryy"/>
    </tlLogic>
    <tlLogic id="1240618031" type="static" programID="0" offset="0">
        <phase duration="79" state="GGggGGGg"/>
        <phase duration="6"  state="yyyyyyyy"/>
        <phase duration="5"  state="rrrrrrrr"/>
    </tlLogic>
    <tlLogic id="1240618060" type="static" programID="0" offset="0">
        <phase duration="39" state="GGrrr"/>
        <phase duration="6"  state="yyrrr"/>
        <phase duration="39" state="rrGGG"/>
        <phase duration="6"  state="rryyy"/>
    </tlLogic>
    <tlLogic id="1240618098" type="static" programID="0" offset="0">
        <phase duration="39" state="GggGGgrrrr"/>
        <phase duration="6"  state="yyyyyyrrrr"/>
        <phase duration="39" state="rrrrrrGGGG"/>
        <phase duration="6"  state="rrrrrryyyy"/>
    </tlLogic>
    <tlLogic id="1240618124" type="static" programID="0" offset="0">
        <phase duration="40" state="rrrGGgGgg"/>
        <phase duration="5"  state="rrryyyyyy"/>
        <phase duration="40" state="GGgGrrrrr"/>
        <phase duration="5"  state="yyyyrrrrr"/>
    </tlLogic>
    <tlLogic id="1240618138" type="static" programID="0" offset="0">
        <phase duration="40" state="rrrrGGggrrrrGGgg"/>
        <phase duration="5"  state="rrrryyyyrrrryyyy"/>
        <phase duration="40" state="GGggrrrrGGggrrrr"/>
        <phase duration="5"  state="yyyyrrrryyyyrrrr"/>
    </tlLogic>
    <tlLogic id="1240618149" type="static" programID="0" offset="0">
        <phase duration="40" state="GGrr"/>
        <phase duration="5"  state="yyrr"/>
        <phase duration="40" state="rrGG"/>
        <phase duration="5"  state="rryy"/>
    </tlLogic>
    <tlLogic id="1240618158" type="static" programID="0" offset="0">
        <phase duration="39" state="GGGrrr"/>
        <phase duration="6"  state="yyyrrr"/>
        <phase duration="39" state="rrrGGG"/>
        <phase duration="6"  state="rrryyy"/>
    </tlLogic>
    <tlLogic id="1240618163" type="static" programID="0" offset="0">
        <phase duration="40" state="GggGGgrrr"/>
        <phase duration="5"  state="yyyyyyrrr"/>
        <phase duration="40" state="rrrrrrGGG"/>
        <phase duration="5"  state="rrrrrryyy"/>
    </tlLogic>
    <tlLogic id="1240618188" type="static" programID="0" offset="0">
        <phase duration="39" state="GGGgGGggrrrr"/>
        <phase duration="6"  state="yyyyyyyyrrrr"/>
        <phase duration="39" state="GrrrrrrrGGGg"/>
        <phase duration="6"  state="yrrrrrrryyyy"/>
    </tlLogic>
    <tlLogic id="1240618251" type="static" programID="0" offset="0">
        <phase duration="39" state="GGrrr"/>
        <phase duration="6"  state="yyrrr"/>
        <phase duration="39" state="rrGGG"/>
        <phase duration="6"  state="rryyy"/>
    </tlLogic>
    <tlLogic id="1240618254" type="static" programID="0" offset="0">
        <phase duration="39" state="rrrrGggGGg"/>
        <phase duration="6"  state="rrrryyyyyy"/>
        <phase duration="39" state="GGGGrrrrrr"/>
        <phase duration="6"  state="yyyyrrrrrr"/>
    </tlLogic>
    <tlLogic id="1240618278" type="static" programID="0" offset="0">
        <phase duration="39" state="GGgrrrrGgg"/>
        <phase duration="6"  state="yyyrrrryyy"/>
        <phase duration="39" state="rrrGGGGrrr"/>
        <phase duration="6"  state="rrryyyyrrr"/>
    </tlLogic>
    <tlLogic id="1240618340" type="static" programID="0" offset="0">
        <phase duration="39" state="GGgrrrrGgg"/>
        <phase duration="6"  state="yyyrrrryyy"/>
        <phase duration="39" state="rrrGGGGrrr"/>
        <phase duration="6"  state="rrryyyyrrr"/>
    </tlLogic>
    <tlLogic id="1240618341" type="static" programID="0" offset="0">
        <phase duration="40" state="rrrGggGGg"/>
        <phase duration="5"  state="rrryyyyyy"/>
        <phase duration="40" state="GGGrrrrrr"/>
        <phase duration="5"  state="yyyrrrrrr"/>
    </tlLogic>
    <tlLogic id="1240618352" type="static" programID="0" offset="0">
        <phase duration="39" state="GGgrrrrGgg"/>
        <phase duration="6"  state="yyyrrrryyy"/>
        <phase duration="39" state="rrrGGGGrrr"/>
        <phase duration="6"  state="rrryyyyrrr"/>
    </tlLogic>
    <tlLogic id="1240618361" type="static" programID="0" offset="0">
        <phase duration="39" state="GGGrrr"/>
        <phase duration="6"  state="yyyrrr"/>
        <phase duration="39" state="rrrGGG"/>
        <phase duration="6"  state="rrryyy"/>
    </tlLogic>
    <tlLogic id="1240618367" type="static" programID="0" offset="0">
        <phase duration="40" state="GGgrrrGgg"/>
        <phase duration="5"  state="yyyrrryyy"/>
        <phase duration="40" state="rrrGGGrrr"/>
        <phase duration="5"  state="rrryyyrrr"/>
    </tlLogic>
    <tlLogic id="1240618440" type="static" programID="0" offset="0">
        <phase duration="40" state="GGgrrrGgg"/>
        <phase duration="5"  state="yyyrrryyy"/>
        <phase duration="40" state="rrrGGGrrr"/>
        <phase duration="5"  state="rrryyyrrr"/>
    </tlLogic>
    <tlLogic id="1240618456" type="static" programID="0" offset="0">
        <phase duration="39" state="GGGrrr"/>
        <phase duration="6"  state="yyyrrr"/>
        <phase duration="39" state="rrrGGG"/>
        <phase duration="6"  state="rrryyy"/>
    </tlLogic>
    <tlLogic id="1240618480" type="static" programID="0" offset="0">
        <phase duration="40" state="rrrGGgGgg"/>
        <phase duration="5"  state="rrryyyyyy"/>
        <phase duration="40" state="GGgGrrrrr"/>
        <phase duration="5"  state="yyyyrrrrr"/>
    </tlLogic>
    <tlLogic id="1240618493" type="static" programID="0" offset="0">
        <phase duration="39" state="GGGrrr"/>
        <phase duration="6"  state="yyyrrr"/>
        <phase duration="39" state="rrrGGG"/>
        <phase duration="6"  state="rrryyy"/>
    </tlLogic>
    <tlLogic id="1240618508" type="static" programID="0" offset="0">
        <phase duration="40" state="GGrr"/>
        <phase duration="5"  state="yyrr"/>
        <phase duration="40" state="rrGG"/>
        <phase duration="5"  state="rryy"/>
    </tlLogic>
    <tlLogic id="1240618649" type="static" programID="0" offset="0">
        <phase duration="39" state="GGgrrrGGg"/>
        <phase duration="6"  state="yyyrrryyy"/>
        <phase duration="39" state="rrrGGGrrr"/>
        <phase duration="6"  state="rrryyyrrr"/>
    </tlLogic>
    <tlLogic id="1268711590" type="static" programID="0" offset="0">
        <phase duration="82" state="GGgGgg"/>
        <phase duration="3"  state="yyyyyy"/>
        <phase duration="5"  state="rrrrrr"/>
    </tlLogic>
    <tlLogic id="1268711592" type="static" programID="0" offset="0">
        <phase duration="40" state="Gr"/>
        <phase duration="5"  state="yr"/>
        <phase duration="40" state="rG"/>
        <phase duration="5"  state="ry"/>
    </tlLogic>
    <tlLogic id="1268711601" type="static" programID="0" offset="0">
        <phase duration="42" state="rrrGGgGgg"/>
        <phase duration="3"  state="rrryyyyyy"/>
        <phase duration="42" state="GGgGrrrrr"/>
        <phase duration="3"  state="yyyyrrrrr"/>
    </tlLogic>
    <tlLogic id="1268711606" type="static" programID="0" offset="0">
        <phase duration="39" state="GGGgGGggrrr"/>
        <phase duration="6"  state="yyyyyyyyrrr"/>
        <phase duration="39" state="GrrrrrrrGGg"/>
        <phase duration="6"  state="yrrrrrrryyy"/>
    </tlLogic>
    <tlLogic id="1268711618" type="static" programID="0" offset="0">
        <phase duration="80" state="GGG"/>
        <phase duration="5"  state="yyy"/>
        <phase duration="5"  state="rrr"/>
    </tlLogic>
    <tlLogic id="1268711628" type="static" programID="0" offset="0">
        <phase duration="42" state="rrrGggGGg"/>
        <phase duration="3"  state="rrryyyyyy"/>
        <phase duration="42" state="GGGrrrrrr"/>
        <phase duration="3"  state="yyyrrrrrr"/>
    </tlLogic>
    <tlLogic id="1268711642" type="static" programID="0" offset="0">
        <phase duration="42" state="rrrGGgGgg"/>
        <phase duration="3"  state="rrryyyyyy"/>
        <phase duration="42" state="GGgGrrrrr"/>
        <phase duration="3"  state="yyyyrrrrr"/>
    </tlLogic>
    <tlLogic id="1268711652" type="static" programID="0" offset="0">
        <phase duration="39" state="GGggGGGgrrr"/>
        <phase duration="6"  state="yyyyyyyyrrr"/>
        <phase duration="39" state="rrrrrrrrGGG"/>
        <phase duration="6"  state="rrrrrrrryyy"/>
    </tlLogic>
    <tlLogic id="1327231911" type="static" programID="0" offset="0">
        <phase duration="40" state="gggrrrgGg"/>
        <phase duration="5"  state="yyyrrryyy"/>
        <phase duration="40" state="GrrGGgrrr"/>
        <phase duration="5"  state="yrryyyrrr"/>
    </tlLogic>
    <tlLogic id="1327231940" type="static" programID="0" offset="0">
        <phase duration="82" state="G"/>
        <phase duration="3"  state="y"/>
        <phase duration="5"  state="r"/>
    </tlLogic>
    <tlLogic id="1327232019" type="static" programID="0" offset="0">
        <phase duration="40" state="rrrGggGGg"/>
        <phase duration="5"  state="rrryyyyyy"/>
        <phase duration="40" state="GGGrrrrrr"/>
        <phase duration="5"  state="yyyrrrrrr"/>
    </tlLogic>
    <tlLogic id="1327232033" type="static" programID="0" offset="0">
        <phase duration="40" state="rrrgGgggg"/>
        <phase duration="5"  state="rrryyyyyy"/>
        <phase duration="40" state="GGgGrrrrr"/>
        <phase duration="5"  state="yyyyrrrrr"/>
    </tlLogic>
    <tlLogic id="1327232061" type="static" programID="0" offset="0">
        <phase duration="40" state="GGgrrrGgg"/>
        <phase duration="5"  state="yyyrrryyy"/>
        <phase duration="40" state="rrrGGGrrr"/>
        <phase duration="5"  state="rrryyyrrr"/>
    </tlLogic>
    <tlLogic id="1327235420" type="static" programID="0" offset="0">
        <phase duration="40" state="GGGrr"/>
        <phase duration="5"  state="yyyrr"/>
        <phase duration="40" state="rrrGG"/>
        <phase duration="5"  state="rrryy"/>
    </tlLogic>
    <tlLogic id="1327235428" type="static" programID="0" offset="0">
        <phase duration="35" state="GGGGgggrrr"/>
        <phase duration="5"  state="yyyygggrrr"/>
        <phase duration="6"  state="rrrrGGGrrr"/>
        <phase duration="5"  state="rrrryyyrrr"/>
        <phase duration="34" state="GrrrGrrGGG"/>
        <phase duration="5"  state="yrrryrryyy"/>
    </tlLogic>
    <tlLogic id="1557426333" type="static" programID="0" offset="0">
        <phase duration="40" state="Gr"/>
        <phase duration="5"  state="yr"/>
        <phase duration="40" state="rG"/>
        <phase duration="5"  state="ry"/>
    </tlLogic>
    <tlLogic id="1557426541" type="static" programID="0" offset="0">
        <phase duration="80" state="GG"/>
        <phase duration="5"  state="yy"/>
        <phase duration="5"  state="rr"/>
    </tlLogic>
    <tlLogic id="1649165602" type="static" programID="0" offset="0">
        <phase duration="40" state="GGggrrrrGGggrrrr"/>
        <phase duration="5"  state="yyyyrrrryyyyrrrr"/>
        <phase duration="40" state="rrrrGGggrrrrGGgg"/>
        <phase duration="5"  state="rrrryyyyrrrryyyy"/>
    </tlLogic>
    <tlLogic id="1650294363" type="static" programID="0" offset="0">
        <phase duration="40" state="GGGgggrrr"/>
        <phase duration="5"  state="yyyyyyrrr"/>
        <phase duration="40" state="GrrrrrGGg"/>
        <phase duration="5"  state="yrrrrryyy"/>
    </tlLogic>
    <tlLogic id="1650294369" type="static" programID="0" offset="0">
        <phase duration="40" state="GGGrr"/>
        <phase duration="5"  state="yyyrr"/>
        <phase duration="40" state="rrrGG"/>
        <phase duration="5"  state="rrryy"/>
    </tlLogic>
    <tlLogic id="1650294370" type="static" programID="0" offset="0">
        <phase duration="40" state="GGrrr"/>
        <phase duration="5"  state="yyrrr"/>
        <phase duration="40" state="rrGGG"/>
        <phase duration="5"  state="rryyy"/>
    </tlLogic>
    <tlLogic id="1650294414" type="static" programID="0" offset="0">
        <phase duration="42" state="rrrrGGggrrrrGGgg"/>
        <phase duration="3"  state="rrrryyyyrrrryyyy"/>
        <phase duration="42" state="GGggrrrrGGggrrrr"/>
        <phase duration="3"  state="yyyyrrrryyyyrrrr"/>
    </tlLogic>
    <tlLogic id="1650294416" type="static" programID="0" offset="0">
        <phase duration="39" state="rrrrGGggGGGg"/>
        <phase duration="6"  state="rrrryyyyyyyy"/>
        <phase duration="39" state="GGGGrrrrrrrr"/>
        <phase duration="6"  state="yyyyrrrrrrrr"/>
    </tlLogic>
    <tlLogic id="1650294432" type="static" programID="0" offset="0">
        <phase duration="39" state="rrrrGGGggrrrrGGGgg"/>
        <phase duration="6"  state="rrrryyyyyrrrryyyyy"/>
        <phase duration="39" state="GGggrrrrrGGggrrrrr"/>
        <phase duration="6"  state="yyyyrrrrryyyyrrrrr"/>
    </tlLogic>
    <tlLogic id="1650294438" type="static" programID="0" offset="0">
        <phase duration="39" state="rrrrGGGggrrrrGGGgg"/>
        <phase duration="6"  state="rrrryyyyyrrrryyyyy"/>
        <phase duration="39" state="GGggrrrrrGGggrrrrr"/>
        <phase duration="6"  state="yyyyrrrrryyyyrrrrr"/>
    </tlLogic>
    <tlLogic id="1650294459" type="static" programID="0" offset="0">
        <phase duration="40" state="GGGrr"/>
        <phase duration="5"  state="yyyrr"/>
        <phase duration="40" state="GrrGg"/>
        <phase duration="5"  state="yrryy"/>
    </tlLogic>
    <tlLogic id="1650294462" type="static" programID="0" offset="0">
        <phase duration="40" state="GGGrr"/>
        <phase duration="5"  state="yyyrr"/>
        <phase duration="40" state="GrrGg"/>
        <phase duration="5"  state="yrryy"/>
    </tlLogic>
    <tlLogic id="1650294479" type="static" programID="0" offset="0">
        <phase duration="42" state="GGggrrrrGGggrrrr"/>
        <phase duration="3"  state="yyyyrrrryyyyrrrr"/>
        <phase duration="42" state="rrrrGGggrrrrGGgg"/>
        <phase duration="3"  state="rrrryyyyrrrryyyy"/>
    </tlLogic>
    <tlLogic id="1650294482" type="static" programID="0" offset="0">
        <phase duration="42" state="rrrrGGggrrrrGGgg"/>
        <phase duration="3"  state="rrrryyyyrrrryyyy"/>
        <phase duration="42" state="GGggrrrrGGggrrrr"/>
        <phase duration="3"  state="yyyyrrrryyyyrrrr"/>
    </tlLogic>
    <tlLogic id="1650294499" type="static" programID="0" offset="0">
        <phase duration="40" state="rrrrGggGGg"/>
        <phase duration="5"  state="rrrryyyyyy"/>
        <phase duration="40" state="GGGGrrrrrr"/>
        <phase duration="5"  state="yyyyrrrrrr"/>
    </tlLogic>
    <tlLogic id="1650294505" type="static" programID="0" offset="0">
        <phase duration="39" state="GggGGgrrrr"/>
        <phase duration="6"  state="yyyyyyrrrr"/>
        <phase duration="39" state="rrrrrrGGGG"/>
        <phase duration="6"  state="rrrrrryyyy"/>
    </tlLogic>
    <tlLogic id="1650294507" type="static" programID="0" offset="0">
        <phase duration="39" state="GGgrrrrGgg"/>
        <phase duration="6"  state="yyyrrrryyy"/>
        <phase duration="39" state="rrrGGGGrrr"/>
        <phase duration="6"  state="rrryyyyrrr"/>
    </tlLogic>
    <tlLogic id="1650294508" type="static" programID="0" offset="0">
        <phase duration="39" state="rrrrGggGGg"/>
        <phase duration="6"  state="rrrryyyyyy"/>
        <phase duration="39" state="GGGGrrrrrr"/>
        <phase duration="6"  state="yyyyrrrrrr"/>
    </tlLogic>
    <tlLogic id="1650294513" type="static" programID="0" offset="0">
        <phase duration="39" state="GGgrrrrGgg"/>
        <phase duration="6"  state="yyyrrrryyy"/>
        <phase duration="39" state="rrrGGGGrrr"/>
        <phase duration="6"  state="rrryyyyrrr"/>
    </tlLogic>
    <tlLogic id="1650294524" type="static" programID="0" offset="0">
        <phase duration="39" state="GGGrrr"/>
        <phase duration="6"  state="yyyrrr"/>
        <phase duration="39" state="rrrGGG"/>
        <phase duration="6"  state="rrryyy"/>
    </tlLogic>
    <tlLogic id="1650294574" type="static" programID="0" offset="0">
        <phase duration="40" state="GGrr"/>
        <phase duration="5"  state="yyrr"/>
        <phase duration="40" state="rrGG"/>
        <phase duration="5"  state="rryy"/>
    </tlLogic>
    <tlLogic id="1650294575" type="static" programID="0" offset="0">
        <phase duration="40" state="GGrr"/>
        <phase duration="5"  state="yyrr"/>
        <phase duration="40" state="rrGG"/>
        <phase duration="5"  state="rryy"/>
    </tlLogic>
    <tlLogic id="1650294577" type="static" programID="0" offset="0">
        <phase duration="40" state="GGGrr"/>
        <phase duration="5"  state="yyyrr"/>
        <phase duration="40" state="rrrGG"/>
        <phase duration="5"  state="rrryy"/>
    </tlLogic>
    <tlLogic id="1650294578" type="static" programID="0" offset="0">
        <phase duration="40" state="GGGrr"/>
        <phase duration="5"  state="yyyrr"/>
        <phase duration="40" state="rrrGG"/>
        <phase duration="5"  state="rrryy"/>
    </tlLogic>
    <tlLogic id="1650294579" type="static" programID="0" offset="0">
        <phase duration="40" state="GGrr"/>
        <phase duration="5"  state="yyrr"/>
        <phase duration="40" state="rrGG"/>
        <phase duration="5"  state="rryy"/>
    </tlLogic>
    <tlLogic id="1650294580" type="static" programID="0" offset="0">
        <phase duration="40" state="GGrr"/>
        <phase duration="5"  state="yyrr"/>
        <phase duration="40" state="rrGG"/>
        <phase duration="5"  state="rryy"/>
    </tlLogic>
    <tlLogic id="1650294581" type="static" programID="0" offset="0">
        <phase duration="40" state="GGGrr"/>
        <phase duration="5"  state="yyyrr"/>
        <phase duration="40" state="rrrGG"/>
        <phase duration="5"  state="rrryy"/>
    </tlLogic>
    <tlLogic id="1650294584" type="static" programID="0" offset="0">
        <phase duration="40" state="GGrrr"/>
        <phase duration="5"  state="yyrrr"/>
        <phase duration="40" state="rrGGG"/>
        <phase duration="5"  state="rryyy"/>
    </tlLogic>
    <tlLogic id="1650294585" type="static" programID="0" offset="0">
        <phase duration="40" state="GGGrr"/>
        <phase duration="5"  state="yyyrr"/>
        <phase duration="40" state="rrrGG"/>
        <phase duration="5"  state="rrryy"/>
    </tlLogic>
    <tlLogic id="1650294588" type="static" programID="0" offset="0">
        <phase duration="42" state="GggGGgrrr"/>
        <phase duration="3"  state="yyyyyyrrr"/>
        <phase duration="42" state="rrrrrrGGG"/>
        <phase duration="3"  state="rrrrrryyy"/>
    </tlLogic>
    <tlLogic id="1650294592" type="static" programID="0" offset="0">
        <phase duration="42" state="GggGGgrrr"/>
        <phase duration="3"  state="yyyyyyrrr"/>
        <phase duration="42" state="rrrrrrGGG"/>
        <phase duration="3"  state="rrrrrryyy"/>
    </tlLogic>
    <tlLogic id="1650294598" type="static" programID="0" offset="0">
        <phase duration="38" state="GGGgrrrrGgggrrrr"/>
        <phase duration="3"  state="yyyyrrrryyyyrrrr"/>
        <phase duration="37" state="rrrrGGggrrrrGGgg"/>
        <phase duration="3"  state="rrrryyggrrrryygg"/>
        <phase duration="6"  state="rrrrrrGGrrrrrrGG"/>
        <phase duration="3"  state="rrrrrryyrrrrrryy"/>
    </tlLogic>
    <tlLogic id="1650311013" type="static" programID="0" offset="0">
        <phase duration="79" state="GG"/>
        <phase duration="6"  state="yy"/>
        <phase duration="5"  state="rr"/>
    </tlLogic>
    <tlLogic id="1650311087" type="static" programID="0" offset="0">
        <phase duration="40" state="GgGrr"/>
        <phase duration="5"  state="yyyrr"/>
        <phase duration="40" state="rrGGG"/>
        <phase duration="5"  state="rryyy"/>
    </tlLogic>
    <tlLogic id="1650311090" type="static" programID="0" offset="0">
        <phase duration="40" state="GggrrrGGg"/>
        <phase duration="5"  state="yyyrrryyy"/>
        <phase duration="40" state="rrrGGgGrr"/>
        <phase duration="5"  state="rrryyyyrr"/>
    </tlLogic>
    <tlLogic id="1706670850" type="static" programID="0" offset="0">
        <phase duration="80" state="G"/>
        <phase duration="5"  state="y"/>
        <phase duration="5"  state="r"/>
    </tlLogic>
    <tlLogic id="1706670856" type="static" programID="0" offset="0">
        <phase duration="82" state="GgGg"/>
        <phase duration="3"  state="yyyy"/>
        <phase duration="5"  state="rrrr"/>
    </tlLogic>
    <tlLogic id="1706670867" type="static" programID="0" offset="0">
        <phase duration="82" state="GgGg"/>
        <phase duration="3"  state="yyyy"/>
        <phase duration="5"  state="rrrr"/>
    </tlLogic>
    <tlLogic id="1706670868" type="static" programID="0" offset="0">
        <phase duration="82" state="GgGg"/>
        <phase duration="3"  state="yyyy"/>
        <phase duration="5"  state="rrrr"/>
    </tlLogic>
    <tlLogic id="1706670882" type="static" programID="0" offset="0">
        <phase duration="82" state="G"/>
        <phase duration="3"  state="y"/>
        <phase duration="5"  state="r"/>
    </tlLogic>
    <tlLogic id="1706670906" type="static" programID="0" offset="0">
        <phase duration="40" state="GGGrr"/>
        <phase duration="5"  state="yyyrr"/>
        <phase duration="40" state="rrrGG"/>
        <phase duration="5"  state="rrryy"/>
    </tlLogic>
    <tlLogic id="1706670946" type="static" programID="0" offset="0">
        <phase duration="40" state="rrrGggGGg"/>
        <phase duration="5"  state="rrryyyyyy"/>
        <phase duration="40" state="GGGrrrrrr"/>
        <phase duration="5"  state="yyyrrrrrr"/>
    </tlLogic>
    <tlLogic id="1706671088" type="static" programID="0" offset="0">
        <phase duration="42" state="GgrrGg"/>
        <phase duration="3"  state="yyrryy"/>
        <phase duration="42" state="rrGGrr"/>
        <phase duration="3"  state="rryyrr"/>
    </tlLogic>
    <tlLogic id="1706671207" type="static" programID="0" offset="0">
        <phase duration="40" state="GGGGGrrrr"/>
        <phase duration="5"  state="yyyyyrrrr"/>
        <phase duration="40" state="rrrrrGGGG"/>
        <phase duration="5"  state="rrrrryyyy"/>
    </tlLogic>
    <tlLogic id="1708122871" type="static" programID="0" offset="0">
        <phase duration="82" state="G"/>
        <phase duration="3"  state="y"/>
        <phase duration="5"  state="r"/>
    </tlLogic>
    <tlLogic id="1708123060" type="static" programID="0" offset="0">
        <phase duration="40" state="GGGGrrr"/>
        <phase duration="5"  state="yyyyrrr"/>
        <phase duration="40" state="rrrrGGG"/>
        <phase duration="5"  state="rrrryyy"/>
    </tlLogic>
    <tlLogic id="1709211291" type="static" programID="0" offset="0">
        <phase duration="82" state="GgGg"/>
        <phase duration="3"  state="yyyy"/>
        <phase duration="5"  state="rrrr"/>
    </tlLogic>
    <tlLogic id="1709211297" type="static" programID="0" offset="0">
        <phase duration="40" state="GGrr"/>
        <phase duration="5"  state="yyrr"/>
        <phase duration="40" state="rrGG"/>
        <phase duration="5"  state="rryy"/>
    </tlLogic>
    <tlLogic id="1709211332" type="static" programID="0" offset="0">
        <phase duration="40" state="GGgrrrGgg"/>