<?xml version="1.0" encoding="UTF-8"?>

<!-- generated on 03/13/19 14:19:33 by Eclipse SUMO netconvert Version 1.1.0
<configuration xmlns:xsi="http://www.w3.org/2001/XMLSchema-instance" xsi:noNamespaceSchemaLocation="http://sumo.dlr.de/xsd/netconvertConfiguration.xsd">

    <input>
        <sumo-net-file value="map.net.xml"/>
    </input>

    <output>
        <plain-output-prefix value="plain"/>
    </output>

    <projection>
        <proj.plain-geo value="true"/>
    </projection>

    <processing>
        <geometry.max-grade.fix value="false"/>
        <offset.disable-normalization value="true"/>
        <lefthand value="false"/>
    </processing>

    <junctions>
        <no-turnarounds value="true"/>
        <junctions.corner-detail value="5"/>
        <junctions.limit-turn-speed value="5.5"/>
        <rectangular-lane-cut value="false"/>
    </junctions>

    <pedestrian>
        <walkingareas value="false"/>
    </pedestrian>

</configuration>
-->

<nodes version="1.1" xmlns:xsi="http://www.w3.org/2001/XMLSchema-instance" xsi:noNamespaceSchemaLocation="http://sumo.dlr.de/xsd/nodes_file.xsd">
    <node id="1235793159" x="120.201262" y="22.993881" type="traffic_light" tl="1235793159"/>
    <node id="1235793185" x="120.200861" y="22.992251" type="traffic_light" tl="1235793185"/>
    <node id="1235793266" x="120.197846" y="22.994890" type="traffic_light" tl="1235793266"/>
    <node id="1235793315" x="120.198670" y="22.992687" type="dead_end"/>
    <node id="1235793378" x="120.198685" y="22.992781" type="traffic_light" tl="1235793378"/>
    <node id="1235793394" x="120.204156" y="22.993084" type="priority"/>
    <node id="1235793433" x="120.201239" y="22.993791" type="traffic_light" tl="1235793433"/>
    <node id="1235793463" x="120.200884" y="22.992339" type="traffic_light" tl="1235793463"/>
    <node id="1235793592" x="120.203049" y="22.993287" type="traffic_light" tl="1235793592"/>
    <node id="1235793686" x="120.199253" y="22.994542" type="traffic_light" tl="1235793686"/>
    <node id="1235793743" x="120.199246" y="22.994444" type="traffic_light" tl="1235793743"/>
    <node id="1235793758" x="120.204577" y="22.989040" type="priority"/>
    <node id="1240286939" x="120.197524" y="22.986343" type="traffic_light" tl="1240286939"/>
    <node id="1240286988" x="120.197650" y="22.981393" type="dead_end"/>
    <node id="1240287126" x="120.197572" y="22.988472" type="traffic_light" tl="1240287126"/>
    <node id="1240287231" x="120.197634" y="22.982649" type="traffic_light" tl="1240287231"/>
    <node id="1240287373" x="120.197567" y="22.982649" type="traffic_light" tl="1240287373"/>
    <node id="1240287652" x="120.216587" y="22.975663" type="dead_end"/>
    <node id="1240287869" x="120.197647" y="22.981461" type="dead_end"/>
    <node id="1240288029" x="120.197553" y="22.983869" type="traffic_light" tl="1240288029"/>
    <node id="1240288300" x="120.197594" y="22.986343" type="traffic_light" tl="1240288300"/>
    <node id="1240288761" x="120.197621" y="22.983869" type="traffic_light" tl="1240288761"/>
    <node id="1240546952" x="120.226727" y="22.977960" type="dead_end"/>
    <node id="1240546997" x="120.226629" y="22.978029" type="priority"/>
    <node id="1240617640" x="120.229785" y="22.997673" type="priority"/>
    <node id="1240617660" x="120.226669" y="22.993558" type="priority"/>
    <node id="1240617667" x="120.214526" y="23.001533" type="priority"/>
    <node id="1240617684" x="120.213777" y="23.001388" type="priority"/>
    <node id="1240617698" x="120.224211" y="22.995802" type="traffic_light" tl="1240617698"/>
    <node id="1240617718" x="120.215086" y="23.003920" type="traffic_light" tl="1240617718"/>
    <node id="1240617775" x="120.213191" y="22.981474" type="priority"/>
    <node id="1240617783" x="120.213207" y="23.001690" type="priority"/>
    <node id="1240617801" x="120.224615" y="23.000616" type="traffic_light" tl="1240617801"/>
    <node id="1240617829" x="120.214229" y="23.003839" type="rail_crossing"/>
    <node id="1240617863" x="120.224235" y="22.991295" type="priority"/>
    <node id="1240617901" x="120.227495" y="23.001481" type="priority"/>
    <node id="1240617919" x="120.237259" y="22.998532" type="priority"/>
    <node id="1240617931" x="120.215060" y="23.003801" type="traffic_light" tl="1240617931"/>
    <node id="1240617938" x="120.212182" y="22.980971" type="priority"/>
    <node id="1240617955" x="120.224457" y="23.000460" type="traffic_light" tl="1240617955"/>
    <node id="1240617960" x="120.227817" y="22.991835" type="priority"/>
    <node id="1240617963" x="120.224617" y="23.002412" type="traffic_light" tl="1240617963"/>
    <node id="1240617976" x="120.213194" y="23.001633" type="priority"/>
    <node id="1240617981" x="120.230582" y="22.998844" type="priority"/>
    <node id="1240618031" x="120.213053" y="23.001645" type="traffic_light" tl="1240618031"/>
    <node id="1240618035" x="120.215911" y="23.005795" type="priority"/>
    <node id="1240618052" x="120.228382" y="22.998468" type="priority"/>
    <node id="1240618059" x="120.214314" y="23.001450" type="priority"/>
    <node id="1240618060" x="120.224596" y="23.000455" type="traffic_light" tl="1240618060"/>
    <node id="1240618066" x="120.226329" y="22.992011" type="priority"/>
    <node id="1240618076" x="120.228682" y="22.995507" type="priority"/>
    <node id="1240618078" x="120.229719" y="22.997804" type="priority"/>
    <node id="1240618083" x="120.216998" y="23.006167" type="priority"/>
    <node id="1240618087" x="120.214417" y="23.003821" type="priority"/>
    <node id="1240618095" x="120.215616" y="22.982060" type="priority"/>
    <node id="1240618098" x="120.214625" y="23.001358" type="traffic_light" tl="1240618098"/>
    <node id="1240618115" x="120.229050" y="22.986793" type="priority"/>
    <node id="1240618124" x="120.228517" y="22.989850" type="traffic_light" tl="1240618124"/>
    <node id="1240618138" x="120.226014" y="22.990621" type="traffic_light" tl="1240618138"/>
    <node id="1240618141" x="120.222533" y="22.985466" type="priority"/>
    <node id="1240618149" x="120.224787" y="23.002480" type="traffic_light" tl="1240618149"/>
    <node id="1240618151" x="120.231292" y="22.974306" type="priority"/>
    <node id="1240618154" x="120.213094" y="23.001682" type="priority"/>
    <node id="1240618158" x="120.222321" y="23.000773" type="traffic_light" tl="1240618158"/>
    <node id="1240618163" x="120.224410" y="22.991141" type="traffic_light" tl="1240618163"/>
    <node id="1240618166" x="120.229898" y="22.997557" type="priority"/>
    <node id="1240618182" x="120.227118" y="22.995620" type="priority"/>
    <node id="1240618185" x="120.214498" y="23.001377" type="priority"/>
    <node id="1240618188" x="120.212741" y="22.999966" type="traffic_light" tl="1240618188"/>
    <node id="1240618193" x="120.228176" y="22.993360" type="priority"/>
    <node id="1240618212" x="120.226483" y="22.983291" type="priority"/>
    <node id="1240618222" x="120.224626" y="23.002499" type="priority"/>
    <node id="1240618237" x="120.224958" y="23.004387" type="priority"/>
    <node id="1240618239" x="120.239979" y="22.998452" type="dead_end"/>
    <node id="1240618251" x="120.224468" y="23.000626" type="traffic_light" tl="1240618251"/>
    <node id="1240618254" x="120.228167" y="22.999886" type="traffic_light" tl="1240618254"/>
    <node id="1240618259" x="120.229764" y="22.995347" type="priority"/>
    <node id="1240618278" x="120.218569" y="23.001049" type="traffic_light" tl="1240618278"/>
    <node id="1240618302" x="120.224309" y="22.984860" type="priority"/>
    <node id="1240618305" x="120.213257" y="22.981313" type="priority"/>
    <node id="1240618328" x="120.224520" y="23.006321" type="priority"/>
    <node id="1240618329" x="120.213853" y="23.001785" type="priority"/>
    <node id="1240618338" x="120.228936" y="22.991696" type="priority"/>
    <node id="1240618340" x="120.214653" y="23.001512" type="traffic_light" tl="1240618340"/>
    <node id="1240618341" x="120.224056" y="22.995813" type="traffic_light" tl="1240618341"/>
    <node id="1240618352" x="120.228206" y="22.999691" type="traffic_light" tl="1240618352"/>
    <node id="1240618361" x="120.234651" y="22.998538" type="traffic_light" tl="1240618361"/>
    <node id="1240618367" x="120.224422" y="22.998465" type="traffic_light" tl="1240618367"/>
    <node id="1240618374" x="120.224801" y="22.975935" type="priority"/>
    <node id="1240618420" x="120.213081" y="23.001647" type="priority"/>
    <node id="1240618440" x="120.224577" y="22.991089" type="traffic_light" tl="1240618440"/>
    <node id="1240618456" x="120.234636" y="22.998373" type="traffic_light" tl="1240618456"/>
    <node id="1240618461" x="120.214329" y="23.001512" type="priority"/>
    <node id="1240618477" x="120.215578" y="22.982158" type="priority"/>
    <node id="1240618480" x="120.227428" y="22.990184" type="traffic_light" tl="1240618480"/>
    <node id="1240618493" x="120.234794" y="22.998523" type="traffic_light" tl="1240618493"/>
    <node id="1240618508" x="120.224284" y="22.998475" type="traffic_light" tl="1240618508"/>
    <node id="1240618511" x="120.224932" y="23.005356" type="priority"/>
    <node id="1240618531" x="120.213633" y="23.004155" type="priority"/>
    <node id="1240618561" x="120.226928" y="22.985855" type="priority"/>
    <node id="1240618572" x="120.229565" y="22.998671" type="priority"/>
    <node id="1240618579" x="120.224778" y="23.002385" type="priority"/>
    <node id="1240618583" x="120.219951" y="22.983396" type="priority"/>
    <node id="1240618598" x="120.224427" y="22.991247" type="priority"/>
    <node id="1240618649" x="120.213061" y="23.001689" type="traffic_light" tl="1240618649"/>
    <node id="1240618664" x="120.231385" y="22.995107" type="priority"/>
    <node id="1268711590" x="120.218098" y="22.995376" type="traffic_light" tl="1268711590"/>
    <node id="1268711592" x="120.204578" y="22.992694" type="traffic_light" tl="1268711592"/>
    <node id="1268711601" x="120.209271" y="22.993041" type="traffic_light" tl="1268711601"/>
    <node id="1268711606" x="120.212454" y="22.998507" type="traffic_light" tl="1268711606"/>
    <node id="1268711607" x="120.219551" y="22.993607" type="priority"/>
    <node id="1268711618" x="120.204572" y="22.992487" type="traffic_light" tl="1268711618"/>
    <node id="1268711625" x="120.211880" y="22.995837" type="priority"/>
    <node id="1268711628" x="120.205803" y="23.000518" type="traffic_light" tl="1268711628"/>
    <node id="1268711642" x="120.214470" y="22.991360" type="traffic_light" tl="1268711642"/>
    <node id="1268711652" x="120.213558" y="23.003949" type="traffic_light" tl="1268711652"/>
    <node id="1327231911" x="120.224424" y="23.006551" type="traffic_light" tl="1327231911"/>
    <node id="1327231940" x="120.221940" y="23.008319" type="traffic_light" tl="1327231940"/>
    <node id="1327231975" x="120.228386" y="23.003899" type="right_before_left"/>
    <node id="1327232019" x="120.224807" y="23.004611" type="traffic_light" tl="1327232019"/>
    <node id="1327232025" x="120.227497" y="23.002508" type="right_before_left"/>
    <node id="1327232028" x="120.225669" y="23.004027" type="right_before_left"/>
    <node id="1327232033" x="120.224665" y="23.006382" type="traffic_light" tl="1327232033"/>
    <node id="1327232045" x="120.225215" y="23.004343" type="right_before_left"/>
    <node id="1327232061" x="120.224965" y="23.004498" type="traffic_light" tl="1327232061"/>
    <node id="1327235420" x="120.199905" y="23.003921" type="traffic_light" tl="1327235420"/>
    <node id="1327235428" x="120.200141" y="23.004006" type="traffic_light" tl="1327235428"/>
    <node id="1327235580" x="120.199864" y="23.005692" type="priority"/>
    <node id="1327235581" x="120.199836" y="23.009543" type="dead_end"/>
    <node id="1557426333" x="120.205656" y="23.005625" type="traffic_light" tl="1557426333"/>
    <node id="1557426541" x="120.205619" y="23.005562" type="traffic_light" tl="1557426541"/>
    <node id="1649165295" x="120.215421" y="22.992668" type="priority"/>
    <node id="1649165328" x="120.214558" y="22.992754" type="priority"/>
    <node id="1649165338" x="120.214614" y="22.993446" type="priority"/>
    <node id="1649165362" x="120.213578" y="22.993617" type="priority"/>
    <node id="1649165395" x="120.213084" y="22.993959" type="priority"/>
    <node id="1649165543" x="120.213214" y="22.994434" type="priority"/>
    <node id="1649165598" x="120.212518" y="22.994567" type="priority"/>
    <node id="1649165602" x="120.211781" y="22.994526" type="traffic_light" tl="1649165602"/>
    <node id="1649165624" x="120.211788" y="22.994615" type="priority"/>
    <node id="1649165628" x="120.212461" y="22.994650" type="priority"/>
    <node id="1649165715" x="120.212754" y="22.995772" type="priority"/>
    <node id="1649165731" x="120.212871" y="22.995993" type="priority"/>
    <node id="1649165939" x="120.213760" y="23.001012" type="priority"/>
    <node id="1649165948" x="120.213834" y="23.001078" type="priority"/>
    <node id="1649982913" x="120.215133" y="22.994287" type="priority"/>
    <node id="1649982924" x="120.216091" y="22.994971" type="priority"/>
    <node id="1649995846" x="120.215179" y="22.994785" type="priority"/>
    <node id="1649995855" x="120.214126" y="22.995377" type="right_before_left"/>
    <node id="1650294354" x="120.214867" y="22.981695" type="priority"/>
    <node id="1650294360" x="120.214746" y="22.982075" type="right_before_left"/>
    <node id="1650294363" x="120.215906" y="22.982240" type="traffic_light" tl="1650294363"/>
    <node id="1650294369" x="120.217263" y="22.982623" type="traffic_light" tl="1650294369"/>
    <node id="1650294370" x="120.217352" y="22.982649" type="traffic_light" tl="1650294370"/>
    <node id="1650294380" x="120.217461" y="22.983394" type="priority"/>
    <node id="1650294385" x="120.219910" y="22.983504" type="priority"/>
    <node id="1650294386" x="120.220127" y="22.983596" type="priority"/>
    <node id="1650294395" x="120.217919" y="22.984255" type="priority"/>
    <node id="1650294396" x="120.216640" y="22.984668" type="priority"/>
    <node id="1650294400" x="120.215306" y="22.985096" type="priority"/>
    <node id="1650294404" x="120.213617" y="22.985361" type="right_before_left"/>
    <node id="1650294405" x="120.216957" y="22.985551" type="priority"/>
    <node id="1650294407" x="120.218598" y="22.985834" type="priority"/>
    <node id="1650294408" x="120.218510" y="22.985861" type="priority"/>
    <node id="1650294410" x="120.215621" y="22.985981" type="priority"/>
    <node id="1650294412" x="120.217238" y="22.986283" type="priority"/>
    <node id="1650294414" x="120.214530" y="22.986317" type="traffic_light" tl="1650294414"/>
    <node id="1650294415" x="120.213983" y="22.986468" type="priority"/>
    <node id="1650294416" x="120.218810" y="22.986647" type="traffic_light" tl="1650294416"/>
    <node id="1650294417" x="120.213175" y="22.986723" type="priority"/>
    <node id="1650294419" x="120.215886" y="22.986731" type="priority"/>
    <node id="1650294422" x="120.217428" y="22.986832" type="priority"/>
    <node id="1650294423" x="120.213138" y="22.986841" type="priority"/>
    <node id="1650294426" x="120.214805" y="22.987068" type="priority"/>
    <node id="1650294428" x="120.217923" y="22.987090" type="priority"/>
    <node id="1650294432" x="120.216145" y="22.987450" type="traffic_light" tl="1650294432"/>
    <node id="1650294434" x="120.212884" y="22.987657" type="priority"/>
    <node id="1650294438" x="120.215068" y="22.987793" type="traffic_light" tl="1650294438"/>
    <node id="1650294452" x="120.212604" y="22.988619" type="priority"/>
    <node id="1650294459" x="120.219778" y="22.989343" type="traffic_light" tl="1650294459"/>
    <node id="1650294462" x="120.219819" y="22.989392" type="traffic_light" tl="1650294462"/>
    <node id="1650294465" x="120.216341" y="22.989548" type="priority"/>
    <node id="1650294466" x="120.215237" y="22.989600" type="priority"/>
    <node id="1650294467" x="120.212203" y="22.989735" type="priority"/>
    <node id="1650294468" x="120.212702" y="22.989714" type="priority"/>
    <node id="1650294479" x="120.215395" y="22.991290" type="traffic_light" tl="1650294479"/>
    <node id="1650294482" x="120.212860" y="22.991469" type="traffic_light" tl="1650294482"/>
    <node id="1650294483" x="120.211941" y="22.991534" type="priority"/>
    <node id="1650294487" x="120.221551" y="22.992065" type="priority"/>
    <node id="1650294491" x="120.212139" y="22.992736" type="priority"/>
    <node id="1650294494" x="120.213032" y="22.993369" type="priority"/>
    <node id="1650294499" x="120.221859" y="22.995969" type="traffic_light" tl="1650294499"/>
    <node id="1650294505" x="120.230571" y="22.998975" type="traffic_light" tl="1650294505"/>
    <node id="1650294507" x="120.229351" y="22.999342" type="traffic_light" tl="1650294507"/>
    <node id="1650294508" x="120.229270" y="22.999548" type="traffic_light" tl="1650294508"/>
    <node id="1650294513" x="120.226661" y="23.000345" type="traffic_light" tl="1650294513"/>
    <node id="1650294516" x="120.228645" y="23.000487" type="priority"/>
    <node id="1650294518" x="120.230971" y="23.000580" type="right_before_left"/>
    <node id="1650294524" x="120.222237" y="23.000779" type="traffic_light" tl="1650294524"/>
    <node id="1650294526" x="120.231910" y="23.000775" type="right_before_left"/>
    <node id="1650294527" x="120.229222" y="23.000809" type="right_before_left"/>
    <node id="1650294534" x="120.226926" y="23.001163" type="priority"/>
    <node id="1650294535" x="120.229675" y="23.001240" type="right_before_left"/>
    <node id="1650294543" x="120.229143" y="23.001458" type="right_before_left"/>
    <node id="1650294544" x="120.227465" y="23.001499" type="priority"/>
    <node id="1650294547" x="120.227490" y="23.001515" type="priority"/>
    <node id="1650294549" x="120.227443" y="23.001532" type="priority"/>
    <node id="1650294551" x="120.227485" y="23.001533" type="priority"/>
    <node id="1650294555" x="120.227880" y="23.001552" type="right_before_left"/>
    <node id="1650294558" x="120.228435" y="23.001581" type="priority"/>
    <node id="1650294573" x="120.227132" y="23.002241" type="right_before_left"/>
    <node id="1650294574" x="120.224767" y="23.002258" type="traffic_light" tl="1650294574"/>
    <node id="1650294575" x="120.224604" y="23.002284" type="traffic_light" tl="1650294575"/>
    <node id="1650294577" x="120.222490" y="23.002587" type="traffic_light" tl="1650294577"/>
    <node id="1650294578" x="120.222407" y="23.002599" type="traffic_light" tl="1650294578"/>
    <node id="1650294579" x="120.224799" y="23.002612" type="traffic_light" tl="1650294579"/>
    <node id="1650294580" x="120.224640" y="23.002639" type="traffic_light" tl="1650294580"/>
    <node id="1650294581" x="120.222425" y="23.002738" type="traffic_light" tl="1650294581"/>
    <node id="1650294582" x="120.222443" y="23.002845" type="priority"/>
    <node id="1650294584" x="120.222536" y="23.002948" type="traffic_light" tl="1650294584"/>
    <node id="1650294585" x="120.222461" y="23.002959" type="traffic_light" tl="1650294585"/>
    <node id="1650294588" x="120.218725" y="23.003142" type="traffic_light" tl="1650294588"/>
    <node id="1650294592" x="120.215033" y="23.003682" type="traffic_light" tl="1650294592"/>
    <node id="1650294595" x="120.214429" y="23.003917" type="priority"/>
    <node id="1650294598" x="120.215113" y="23.004039" type="traffic_light" tl="1650294598"/>
    <node id="1650294599" x="120.215223" y="23.004020" type="priority"/>
    <node id="1650294603" x="120.222642" y="23.004564" type="priority"/>
    <node id="1650294609" x="120.222525" y="23.005208" type="priority"/>
    <node id="1650311013" x="120.233359" y="22.978123" type="traffic_light" tl="1650311013"/>
    <node id="1650311015" x="120.229546" y="22.980953" type="priority"/>
    <node id="1650311016" x="120.220128" y="22.983988" type="right_before_left"/>
    <node id="1650311021" x="120.218230" y="22.984844" type="priority"/>
    <node id="1650311027" x="120.226178" y="22.985566" type="priority"/>
    <node id="1650311028" x="120.221853" y="22.985683" type="priority"/>
    <node id="1650311030" x="120.221549" y="22.985780" type="priority"/>
    <node id="1650311033" x="120.222587" y="22.986203" type="priority"/>
    <node id="1650311034" x="120.222106" y="22.986370" type="priority"/>
    <node id="1650311039" x="120.222899" y="22.987164" type="priority"/>
    <node id="1650311040" x="120.223073" y="22.987136" type="priority"/>
    <node id="1650311041" x="120.223532" y="22.987119" type="right_before_left"/>
    <node id="1650311043" x="120.222272" y="22.987124" type="priority"/>
    <node id="1650311046" x="120.225588" y="22.987559" type="right_before_left"/>
    <node id="1650311048" x="120.219115" y="22.987274" type="priority"/>
    <node id="1650311049" x="120.219041" y="22.987298" type="priority"/>
    <node id="1650311051" x="120.219130" y="22.987317" type="priority"/>
    <node id="1650311056" x="120.223417" y="22.987790" type="priority"/>
    <node id="1650311059" x="120.223332" y="22.987812" type="priority"/>
    <node id="1650311060" x="120.216853" y="22.987970" type="priority"/>
    <node id="1650311062" x="120.225501" y="22.988000" type="right_before_left"/>
    <node id="1650311065" x="120.220204" y="22.988115" type="right_before_left"/>
    <node id="1650311067" x="120.216213" y="22.988133" type="priority"/>
    <node id="1650311068" x="120.220521" y="22.988306" type="right_before_left"/>
    <node id="1650311081" x="120.220628" y="22.989171" type="right_before_left"/>
    <node id="1650311087" x="120.220199" y="22.989735" type="traffic_light" tl="1650311087"/>
    <node id="1650311090" x="120.227937" y="22.990023" type="traffic_light" tl="1650311090"/>
    <node id="1650311094" x="120.224980" y="22.990948" type="priority"/>
    <node id="1650311113" x="120.215510" y="22.992517" type="priority"/>
    <node id="1650311117" x="120.214549" y="22.992614" type="priority"/>
    <node id="1650311123" x="120.220331" y="22.994878" type="priority"/>
    <node id="1650311127" x="120.220359" y="22.996079" type="priority"/>
    <node id="1706670849" x="120.196662" y="22.995261" type="dead_end"/>
    <node id="1706670850" x="120.196676" y="22.995334" type="traffic_light" tl="1706670850"/>
    <node id="1706670856" x="120.194535" y="22.997769" type="traffic_light" tl="1706670856"/>
    <node id="1706670867" x="120.189888" y="22.998426" type="traffic_light" tl="1706670867"/>
    <node id="1706670868" x="120.189802" y="22.998467" type="traffic_light" tl="1706670868"/>
    <node id="1706670882" x="120.187590" y="22.999086" type="traffic_light" tl="1706670882"/>
    <node id="1706670906" x="120.198819" y="23.000550" type="traffic_light" tl="1706670906"/>
    <node id="1706670946" x="120.199463" y="23.002495" type="traffic_light" tl="1706670946"/>
    <node id="1706670948" x="120.196459" y="23.002573" type="dead_end"/>
    <node id="1706670967" x="120.198302" y="23.002910" type="priority"/>
    <node id="1706670998" x="120.199196" y="23.003664" type="priority"/>
    <node id="1706671044" x="120.199177" y="23.004607" type="priority"/>
    <node id="1706671046" x="120.199882" y="23.004621" type="priority"/>
    <node id="1706671088" x="120.203253" y="23.005050" type="traffic_light" tl="1706671088"/>
    <node id="1706671185" x="120.197881" y="23.006185" type="priority"/>
    <node id="1706671189" x="120.199146" y="23.006212" type="right_before_left"/>
    <node id="1706671207" x="120.200093" y="23.006478" type="traffic_light" tl="1706671207"/>
    <node id="1706722274" x="120.202738" y="23.005538" type="priority"/>
    <node id="1708122871" x="120.198213" y="22.991762" type="traffic_light" tl="1708122871"/>
    <node id="1708122958" x="120.196501" y="22.995388" type="dead_end"/>
    <node id="1708123060" x="120.199945" y="23.003856" type="traffic_light" tl="1708123060"/>
    <node id="1709211290" x="120.199091" y="22.993984" type="priority"/>
    <node id="1709211291" x="120.197699" y="22.994280" type="traffic_light" tl="1709211291"/>
    <node id="1709211297" x="120.200008" y="22.997053" type="traffic_light" tl="1709211297"/>
    <node id="1709211300" x="120.200146" y="22.997164" type="priority"/>
    <node id="1709211301" x="120.200006" y="22.997163" type="priority"/>
    <node id="1709211332" x="120.200591" y="22.997460" type="traffic_light" tl="1709211332"/>
    <node id="1709211334" x="120.200472" y="22.997473" type="priority"/>
    <node id="1709211339" x="120.199660" y="22.997600" type="priority"/>
    <node id="1709211341" x="120.199562" y="22.997611" type="traffic_light" tl="1709211341"/>
    <node id="1709211397" x="120.200265" y="22.997865" type="priority"/>
    <node id="1709211399" x="120.202377" y="22.997936" type="priority"/>
    <node id="1709211404" x="120.200302" y="22.997961" type="traffic_light" tl="1709211404"/>
    <node id="1709211408" x="120.197858" y="22.998190" type="traffic_light" tl="1709211408"/>
    <node id="1709211410" x="120.200613" y="22.998532" type="priority"/>
    <node id="1709211413" x="120.199519" y="22.998901" type="traffic_light" tl="1709211413"/>
    <node id="1709211416" x="120.198310" y="22.999310" type="traffic_light" tl="1709211416"/>
    <node id="1709211417" x="120.198152" y="22.999363" type="traffic_light" tl="1709211417"/>
    <node id="1709211418" x="120.201298" y="22.999621" type="traffic_light" tl="1709211418"/>
    <node id="1709211419" x="120.201211" y="22.999649" type="traffic_light" tl="1709211419"/>
    <node id="1709211422" x="120.200029" y="23.000135" type="traffic_light" tl="1709211422"/>
    <node id="1709211424" x="120.198784" y="23.000469" type="dead_end"/>
    <node id="1709211425" x="120.198640" y="23.000520" type="dead_end"/>
    <node id="1709211426" x="120.198673" y="23.000600" type="traffic_light" tl="1709211426"/>
    <node id="1709211427" x="120.200366" y="23.000970" type="priority"/>
    <node id="1709211429" x="120.199170" y="23.001376" type="traffic_light" tl="1709211429"/>
    <node id="1709211430" x="120.199018" y="23.001428" type="traffic_light" tl="1709211430"/>
    <node id="1709211431" x="120.197839" y="23.001828" type="priority"/>
    <node id="1709211432" x="120.203399" y="23.002449" type="traffic_light" tl="1709211432"/>
    <node id="1709211433" x="120.203467" y="23.002540" type="traffic_light" tl="1709211433"/>
    <node id="1709211440" x="120.200446" y="23.003428" type="priority"/>
    <node id="1709211443" x="120.200143" y="23.003668" type="traffic_light" tl="1709211443"/>
    <node id="1709211444" x="120.200289" y="23.003682" type="priority"/>
    <node id="1709211445" x="120.200118" y="23.003920" type="traffic_light" tl="1709211445"/>
    <node id="1709211447" x="120.205880" y="23.006029" type="traffic_light" tl="1709211447"/>
    <node id="1709211448" x="120.206002" y="23.006066" type="traffic_light" tl="1709211448"/>
    <node id="1709211450" x="120.205942" y="23.006146" type="traffic_light" tl="1709211450"/>
    <node id="1709211452" x="120.206053" y="23.006173" type="traffic_light" tl="1709211452"/>
    <node id="1709211454" x="120.199850" y="23.006478" type="traffic_light" tl="1709211454"/>
    <node id="1709211455" x="120.208141" y="23.006842" type="priority"/>
    <node id="1709211465" x="120.206680" y="23.007588" type="traffic_light" tl="1709211465"/>
    <node id="1709211467" x="120.209818" y="23.007744" type="traffic_light" tl="1709211467"/>
    <node id="1709211471" x="120.204877" y="23.008432" type="priority"/>
    <node id="1709220944" x="120.204962" y="22.995982" type="priority"/>
    <node id="1709220959" x="120.199533" y="22.996070" type="priority"/>
    <node id="1709220963" x="120.198494" y="22.996435" type="traffic_light" tl="1709220963"/>
    <node id="1709220980" x="120.197295" y="22.996839" type="traffic_light" tl="1709220980"/>
    <node id="1709220981" x="120.197123" y="22.996897" type="traffic_light" tl="1709220981"/>
    <node id="1709220982" x="120.205105" y="22.997013" type="priority"/>
    <node id="1709220989" x="120.204441" y="22.997221" type="priority"/>
    <node id="1709220994" x="120.205286" y="22.998321" type="priority"/>
    <node id="1709221012" x="120.202930" y="23.000034" type="priority"/>
    <node id="1709221016" x="120.202515" y="23.000139" type="right_before_left"/>
    <node id="1709221024" x="120.201716" y="23.000192" type="priority"/>
    <node id="1709221043" x="120.198865" y="23.000535" type="priority"/>
    <node id="1709221067" x="120.200442" y="23.002150" type="priority"/>
    <node id="1709221073" x="120.199621" y="23.002438" type="traffic_light" tl="1709221073"/>
    <node id="1709283345" x="120.200019" y="23.009556" type="dead_end"/>
    <node id="1709315620" x="120.201363" y="23.006462" type="priority"/>
    <node id="1709315625" x="120.200054" y="23.006797" type="traffic_light" tl="1709315625"/>
    <node id="1709315633" x="120.200743" y="23.008982" type="priority"/>
    <node id="1709315642" x="120.203602" y="23.009657" type="traffic_light" tl="1709315642"/>
    <node id="1710193207" x="120.200007" y="22.994191" type="priority"/>
    <node id="1710193208" x="120.200032" y="22.994265" type="priority"/>
    <node id="1710193211" x="120.199515" y="22.995990" type="priority"/>
    <node id="1710193216" x="120.198391" y="22.996191" type="priority"/>
    <node id="1710193225" x="120.199675" y="22.996184" type="priority"/>
    <node id="1710193230" x="120.200724" y="22.996427" type="priority"/>
    <node id="1710193232" x="120.197144" y="22.996472" type="traffic_light" tl="1710193232"/>
    <node id="1710193235" x="120.198543" y="22.996554" type="priority"/>
    <node id="1710193255" x="120.201998" y="22.996981" type="traffic_light" tl="1710193255"/>
    <node id="1710193260" x="120.201078" y="22.997291" type="priority"/>