<?xml version="1.0" encoding="UTF-8"?>
<!-- generated on 2019-03-12 20:35:27.964962 by $Id$
  options: -n map.net.xml -r map.rou.xml -e 100 -l
-->
<routes xmlns:xsi="http://www.w3.org/2001/XMLSchema-instance" xsi:noNamespaceSchemaLocation="http://sumo.dlr.de/xsd/routes_file.xsd">
    <trip id="0" depart="0.00" from="307244665#2" to="496332196#1"/>
    <trip id="1" depart="1.00" from="531438440#0" to="38367661#1"/>
   
</routes>
