<?xml version="1.0" encoding="UTF-8"?>
<!-- generated on 2019-05-09 23:37:18.405081 by $Id$
  options: -n map_edited.net.xml <doubleminus>vehicle-class truck <doubleminus>trip-attributes=maxSpeed="10" -r map3.rou.xml <doubleminus>end 30 <doubleminus>lanes 50
-->
<routes xmlns:xsi="http://www.w3.org/2001/XMLSchema-instance" xsi:noNamespaceSchemaLocation="http://sumo.dlr.de/xsd/routes_file.xsd">
    <vType id="truck" vClass="truck" maxSpeed="10"/>
    <trip id="0" depart="0.00" from="-381410220#2" to="158854921#2" type="truck"/>
    <trip id="1" depart="1.00" from="302240601#10" to="-491781547#0" type="truck"/>
    <trip id="2" depart="2.00" from="160526475#3" to="256288449#1" type="truck"/>
    <trip id="3" depart="3.00" from="108071730#12" to="286841509#3" type="truck"/>
    <trip id="4" depart="4.00" from="-500031972#4" to="298600774#3" type="truck"/>
    <trip id="5" depart="5.00" from="-376661538#18" to="-207905507#1" type="truck"/>
    <trip id="6" depart="6.00" from="-287304445#3" to="396430847#2" type="truck"/>
    <trip id="7" depart="7.00" from="107469533#7" to="508142289#0" type="truck"/>
    <trip id="8" depart="8.00" from="-158479867#11" to="-515811943#7" type="truck"/>
    <trip id="9" depart="9.00" from="107469513#0" to="107538192#1" type="truck"/>
    <trip id="10" depart="10.00" from="41389166#9" to="228022809#4" type="truck"/>
    <trip id="11" depart="11.00" from="228022799#14" to="444910434#0" type="truck"/>
    <trip id="12" depart="12.00" from="-302240826#2" to="-442079838" type="truck"/>
    <trip id="13" depart="13.00" from="-496249894#11" to="107581762#0" type="truck"/>
    <trip id="14" depart="14.00" from="279365157#7" to="-117916920#11" type="truck"/>
    <trip id="15" depart="15.00" from="238985591#0" to="328547978#5" type="truck"/>
    <trip id="16" depart="16.00" from="307244667#1" to="-298272455#1" type="truck"/>
    <trip id="17" depart="17.00" from="520547189#14" to="158824780#9" type="truck"/>
    <trip id="18" depart="18.00" from="161605152#8" to="307154292#0" type="truck"/>
    <trip id="19" depart="19.00" from="-119612644#6" to="552358556#1" type="truck"/>
    <trip id="20" depart="20.00" from="24452781#0" to="520547182#0" type="truck"/>
    <trip id="21" depart="21.00" from="-442079842" to="-376660036" type="truck"/>
    <trip id="22" depart="22.00" from="-160526413#2" to="508142295#7" type="truck"/>
    <trip id="23" depart="23.00" from="496339482#3" to="552358556#0" type="truck"/>
    <trip id="24" depart="24.00" from="207905501#0" to="-381410223#2" type="truck"/>
    <trip id="25" depart="25.00" from="-160095078#2" to="108037265#2" type="truck"/>
    <trip id="26" depart="26.00" from="497938177#3" to="42451246#1" type="truck"/>
    <trip id="27" depart="27.00" from="159014269#1" to="41389174#2" type="truck"/>
    <trip id="28" depart="28.00" from="-316267745#0" to="274022888#0" type="truck"/>
    <trip id="29" depart="29.00" from="284190710#4" to="207905507#2" type="truck"/>
</routes>
